
-------------------------------------------------------------------------
|    ___ _   _ ___                                                      |
|   / __| | | |_  )   Release 7.5.0 "Blackbird"                         |
|   \__ \ |_| |/ /                                                      |
|   |___/\___//___|   Suite (Computational Fluid Dynamics Code)         |
|                                                                       |
-------------------------------------------------------------------------
| SU2 Project Website: https://su2code.github.io                        |
|                                                                       |
| The SU2 Project is maintained by the SU2 Foundation                   |
| (http://su2foundation.org)                                            |
-------------------------------------------------------------------------
| Copyright 2012-2022, SU2 Contributors                                 |
|                                                                       |
| SU2 is free software; you can redistribute it and/or                  |
| modify it under the terms of the GNU Lesser General Public            |
| License as published by the Free Software Foundation; either          |
| version 2.1 of the License, or (at your option) any later version.    |
|                                                                       |
| SU2 is distributed in the hope that it will be useful,                |
| but WITHOUT ANY WARRANTY; without even the implied warranty of        |
| MERCHANTABILITY or FITNESS FOR A PARTICULAR PURPOSE. See the GNU      |
| Lesser General Public License for more details.                       |
|                                                                       |
| You should have received a copy of the GNU Lesser General Public      |
| License along with SU2. If not, see <http://www.gnu.org/licenses/>.   |
-------------------------------------------------------------------------

Parsing config file for zone 0

----------------- Physical Case Definition ( Zone 0 ) -------------------
Compressible RANS equations.
Turbulence model: Negative-Spalart-Allmaras-noft2
Hybrid RANS/LES: No Hybrid RANS/LES
Mach number: 0.15.
Angle of attack (AoA): 10 deg, and angle of sideslip (AoS): 0 deg.
Reynolds number: 6e+06. Reference length 1.
No restart solution, use the values at infinity (freestream).
Dimensional simulation.
The reference area is 1 m^2.
The semi-span will be computed using the max y(3D) value.
The reference length is 1 m.
Reference origin for moment evaluation is (0.25, 0, 0).
Surface(s) where the force coefficients are evaluated: walls.

Surface(s) plotted in the output file: walls.
Input mesh file name: mesh/naca0012_from_openfoam.su2

--------------- Space Numerical Integration ( Zone 0 ) ------------------
Roe (with entropy fix = 0.001) solver for the flow inviscid terms.
Standard Roe without low-dissipation function.
Second order integration in space, with slope limiter.
No slope-limiting method. 
Scalar upwind solver for the turbulence model.
Second order integration in space, with slope limiter.
No slope-limiting method. 
Average of gradients with correction (viscous flow terms).
Average of gradients with correction (viscous turbulence terms).
Gradient for upwind reconstruction: unweighted Least-Squares.
Gradient for viscous and source terms: inverse-distance weighted Least-Squares.

--------------- Time Numerical Integration  ( Zone 0 ) ------------------
Local time stepping (steady state simulation).
Euler implicit method for the flow equations.
FGMRES is used for solving the linear system.
Using a ILU(0) preconditioning.
Convergence criteria of the linear solver: 0.1.
Max number of linear iterations: 1000.
No CFL adaptation.
Courant-Friedrichs-Lewy number:      100
Euler implicit time integration for the turbulence model.

------------------ Convergence Criteria  ( Zone 0 ) ---------------------
Maximum number of solver subiterations: 5000.
Begin convergence monitoring at iteration 10.
Residual minimum value: 1e-12.
Cauchy series min. value: 1e-06.
Number of Cauchy elements: 100.
Begin windowed time average at iteration 0.

-------------------- Output Information ( Zone 0 ) ----------------------
File writing frequency: 
+------------------------------------+
|                     File| Frequency|
+------------------------------------+
|                  RESTART|     10000|
|                 PARAVIEW|     10000|
|         SURFACE_PARAVIEW|     10000|
+------------------------------------+
Writing the convergence history file every 1 inner iterations.
Writing the screen convergence history every 1 inner iterations.
The tabular file format is CSV (.csv).
Convergence history file name: history.
Forces breakdown file name: forces_breakdown.dat.
Surface file name: surface_flow.
Volume file name: flow.
Restart file name: restart_flow.dat.

------------- Config File Boundary Information ( Zone 0 ) ---------------
+-----------------------------------------------------------------------+
|                        Marker Type|                        Marker Name|
+-----------------------------------------------------------------------+
|                          Far-field|                              inlet|
|                                   |                             outlet|
+-----------------------------------------------------------------------+
|                     Heat flux wall|                              walls|
+-----------------------------------------------------------------------+

-------------------- Output Preprocessing ( Zone 0 ) --------------------

WARNING: SURFACE_PRESSURE_DROP can only be computed for at least 2 surfaces (outlet, inlet, ...)

Screen output fields: INNER_ITER, RMS_DENSITY, DRAG, LINSOL_ITER, LINSOL_RESIDUAL, LINSOL_ITER_TURB, LINSOL_RESIDUAL_TURB
History output group(s): INNER_ITER, RMS_DENSITY, RMS_MOMENTUM-X, RMS_MOMENTUM-Y, RMS_ENERGY, RMS_NU_TILDE, LIFT, DRAG, WALL_TIME
Convergence field(s): RMS_DENSITY
Warning: No (valid) fields chosen for time convergence monitoring. Time convergence monitoring inactive.
Volume output fields: COORDINATES, SOLUTION, PRIMITIVE

------------------- Geometry Preprocessing ( Zone 0 ) -------------------
Two dimensional problem.
10906 grid points before partitioning.
10720 volume elements before partitioning.
3 surface markers.
134 boundary elements in index 0 (Marker = inlet).
160 boundary elements in index 1 (Marker = outlet).
78 boundary elements in index 2 (Marker = walls).
Executing the partitioning functions.
Building the graph adjacency structure.
Calling ParMETIS... graph partitioning complete (426 edge cuts).
Distributing ParMETIS coloring.
Rebalancing vertices.
Rebalancing volume element connectivity.
Rebalancing markers and surface elements.
11770 vertices including ghost points. 
11146 interior elements including halo cells. 
11146 quadrilaterals.
Establishing MPI communication patterns.
Setting point connectivity.
Renumbering points (Reverse Cuthill McKee Ordering).
Recomputing point connectivity.
Setting element connectivity.
Checking the numerical grid orientation.
There has been a re-orientation of 5645 QUADRILATERAL volume elements.
There has been a re-orientation of 81 LINE surface elements.
Identifying edges and vertices.
Setting the control volume structure.
Area of the computational grid: 176.903.
Searching for the closest normal neighbors to the surfaces.
Storing a mapping from global to local point index.
Compute the surface curvature.
Max K: 38.4671. Mean K: 1.68349. Standard deviation K: 5.64091.
Checking for periodicity.
Computing mesh quality statistics for the dual control volumes.
+--------------------------------------------------------------+
|           Mesh Quality Metric|        Minimum|        Maximum|
+--------------------------------------------------------------+
|    Orthogonality Angle (deg.)|        48.0185|        89.9992|
|     CV Face Area Aspect Ratio|        1.00028|        95.9769|
|           CV Sub-Volume Ratio|        1.00911|        2.30138|
+--------------------------------------------------------------+
Finding max control volume width.
Communicating number of neighbors.
Wetted area = 1.99895 m.
Area projection in the x-plane = 0.179909 m, y-plane = 0.952748 m.
Max. coordinate in the x-direction = 1 m, y-direction = 0.105509 m.
Min. coordinate in the x-direction = -5.70659e-05 m, y-direction = -0.074556 m.
Computing wall distances.

-------------------- Solver Preprocessing ( Zone 0 ) --------------------
Viscous flow: Computing pressure using the ideal gas law
based on the free-stream temperature and a density computed
from the Reynolds number.
Force coefficients computed using free-stream values.

-- Models:
+------------------------------------------------------------------------------+
|          Viscosity Model|        Conductivity Model|              Fluid Model|
+------------------------------------------------------------------------------+
|               SUTHERLAND|          CONSTANT_PRANDTL|             STANDARD_AIR|
+------------------------------------------------------------------------------+
-- Fluid properties:
+------------------------------------------------------------------------------+
|                  Name|    Dim. value|    Ref. value|      Unit|Non-dim. value|
+------------------------------------------------------------------------------+
|        Ref. Viscosity|     1.716e-05|             1|   N.s/m^2|     1.716e-05|
|      Sutherland Temp.|        273.15|             1|         K|        273.15|
|     Sutherland Const.|         110.4|             1|         K|         110.4|
+------------------------------------------------------------------------------+
|        Prandtl (Lam.)|             -|             -|         -|          0.72|
|       Prandtl (Turb.)|             -|             -|         -|           0.9|
+------------------------------------------------------------------------------+
|          Gas Constant|       287.058|             1|  N.m/kg.K|       287.058|
|      Spec. Heat Ratio|             -|             -|         -|           1.4|
+------------------------------------------------------------------------------+
-- Initial and free-stream conditions:
+------------------------------------------------------------------------------+
|                  Name|    Dim. value|    Ref. value|      Unit|Non-dim. value|
+------------------------------------------------------------------------------+
|       Static Pressure|        183127|             1|        Pa|        183127|
|               Density|       2.12649|             1|    kg/m^3|       2.12649|
|           Temperature|           300|             1|         K|           300|
|          Total Energy|        216650|             1|   m^2/s^2|        216650|
|            Velocity-X|       51.2923|             1|       m/s|       51.2923|
|            Velocity-Y|       9.04422|             1|       m/s|       9.04422|
|    Velocity Magnitude|       52.0836|             1|       m/s|       52.0836|
+------------------------------------------------------------------------------+
|             Viscosity|   1.84592e-05|             1|   N.s/m^2|   1.84592e-05|
|          Conductivity|             -|             1|   W/m^2.K|             -|
|     Turb. Kin. Energy|       10.1726|             1|   m^2/s^2|       10.1726|
|     Spec. Dissipation|        117188|             1|       1/s|        117188|
+------------------------------------------------------------------------------+
|           Mach Number|             -|             -|         -|          0.15|
|       Reynolds Number|             -|             -|         -|         6e+06|
+------------------------------------------------------------------------------+
Initialize Jacobian structure (Navier-Stokes). MG level: 0.
Initialize Jacobian structure (SA model).

------------------- Numerics Preprocessing ( Zone 0 ) -------------------

----------------- Integration Preprocessing ( Zone 0 ) ------------------

------------------- Iteration Preprocessing ( Zone 0 ) ------------------
Euler/Navier-Stokes/RANS fluid iteration.

------------------------------ Begin Solver -----------------------------

Simulation Run using the Single-zone Driver
WARNING: SU2 was not compiled for an AVX-capable architecture. Performance could be better,
         see https://su2code.github.io/docs_v7/Build-SU2-Linux-MacOS/#compiler-optimizations
+------------------------------------------------------------------------------------------+
|  Inner_Iter|    rms[Rho]|          CD|Linear_Solve|   LinSolRes|LinSolIterTu|LinSolResTur|
+------------------------------------------------------------------------------------------+
|           0|   -1.074609|  3.5125e+00|           3|   -1.185853|           2|   -1.434771|
|           1|   -1.485992|  2.1453e+00|           4|   -1.021108|           2|   -1.672133|
|           2|   -1.602521|  7.2504e-01|           4|   -1.048981|           2|   -1.647560|
|           3|   -1.907026|  5.9685e-02|           6|   -1.218923|           2|   -1.797401|
|           4|   -2.334772| -6.5661e-02|           7|   -1.160031|           2|   -2.012589|
|           5|   -2.602349| -4.0154e-03|           7|   -1.078800|           2|   -2.230385|
|           6|   -2.925685|  7.2613e-02|           8|   -1.114640|           2|   -2.417332|
|           7|   -3.032379|  1.1714e-01|           8|   -1.079178|           2|   -2.550602|
|           8|   -3.104271|  1.3074e-01|           8|   -1.100513|           2|   -2.590556|
|           9|   -3.259497|  1.2690e-01|           8|   -1.016776|           2|   -2.560716|
|          10|   -3.415131|  1.1856e-01|           9|   -1.128631|           2|   -2.508604|
|          11|   -3.483663|  1.1280e-01|           9|   -1.152831|           2|   -2.468397|
|          12|   -3.523199|  1.1113e-01|           9|   -1.189158|           2|   -2.439628|
|          13|   -3.559348|  1.1170e-01|           9|   -1.189381|           2|   -2.406022|
|          14|   -3.583453|  1.1237e-01|           9|   -1.172622|           2|   -2.363185|
|          15|   -3.604057|  1.1210e-01|           9|   -1.157528|           2|   -2.316917|
|          16|   -3.629938|  1.1088e-01|           9|   -1.145338|           2|   -2.262908|
|          17|   -3.660274|  1.0913e-01|           9|   -1.135356|           2|   -2.187546|
|          18|   -3.690682|  1.0727e-01|           9|   -1.128999|           2|   -2.085933|
|          19|   -3.717818|  1.0551e-01|           9|   -1.128191|           2|   -1.974695|
|          20|   -3.740473|  1.0389e-01|           9|   -1.134000|           2|   -1.877551|
|          21|   -3.758811|  1.0236e-01|           9|   -1.146215|           2|   -1.813114|
|          22|   -3.773836|  1.0090e-01|           9|   -1.163009|           2|   -1.785336|
|          23|   -3.786466|  9.9464e-02|           9|   -1.181544|           2|   -1.786520|
|          24|   -3.797123|  9.8077e-02|           9|   -1.199262|           2|   -1.800563|
|          25|   -3.806104|  9.6750e-02|           9|   -1.215213|           2|   -1.812925|
|          26|   -3.813657|  9.5497e-02|           9|   -1.230249|           2|   -1.809846|
|          27|   -3.819948|  9.4268e-02|           8|   -1.008088|           2|   -1.798977|
|          28|   -3.823312|  9.3140e-02|           8|   -1.023549|           2|   -1.778559|
|          29|   -3.826984|  9.2096e-02|           8|   -1.040038|           2|   -1.746351|
|          30|   -3.831017|  9.1132e-02|           8|   -1.055976|           2|   -1.706450|
|          31|   -3.833927|  9.0244e-02|           8|   -1.071528|           2|   -1.667403|
|          32|   -3.835992|  8.9422e-02|           8|   -1.086074|           2|   -1.636985|
|          33|   -3.837757|  8.8655e-02|           8|   -1.099186|           2|   -1.619637|
|          34|   -3.839476|  8.7938e-02|           8|   -1.110750|           2|   -1.614973|
|          35|   -3.841301|  8.7264e-02|           8|   -1.120829|           2|   -1.618239|
|          36|   -3.843391|  8.6630e-02|           8|   -1.129651|           2|   -1.622798|
|          37|   -3.845977|  8.6027e-02|           8|   -1.137506|           2|   -1.623976|
|          38|   -3.849228|  8.5450e-02|           8|   -1.144769|           2|   -1.619965|
|          39|   -3.853283|  8.4891e-02|           8|   -1.151765|           2|   -1.611273|
|          40|   -3.858238|  8.4342e-02|           8|   -1.158745|           2|   -1.599819|
|          41|   -3.864161|  8.3796e-02|           8|   -1.165862|           2|   -1.587125|
|          42|   -3.871033|  8.3246e-02|           8|   -1.173313|           2|   -1.573777|
|          43|   -3.878837|  8.2652e-02|           7|   -1.009743|           2|   -1.560608|
|          44|   -3.885403|  8.2037e-02|           7|   -1.022406|           2|   -1.547725|
|          45|   -3.894164|  8.1429e-02|           7|   -1.034507|           2|   -1.535375|
|          46|   -3.905089|  8.0821e-02|           7|   -1.043806|           2|   -1.524004|
|          47|   -3.916506|  8.0197e-02|           7|   -1.052980|           2|   -1.513038|
|          48|   -3.928572|  7.9549e-02|           7|   -1.062198|           2|   -1.504623|
|          49|   -3.941464|  7.8875e-02|           7|   -1.071663|           2|   -1.492813|
|          50|   -3.955171|  7.8178e-02|           7|   -1.081829|           2|   -1.477786|
|          51|   -3.969664|  7.7461e-02|           7|   -1.093224|           2|   -1.459723|
|          52|   -3.984931|  7.6728e-02|           7|   -1.106056|           2|   -1.440087|
|          53|   -4.000923|  7.5984e-02|           7|   -1.120119|           2|   -1.421837|
|          54|   -4.017555|  7.5233e-02|           7|   -1.134849|           2|   -1.407619|
|          55|   -4.034722|  7.4479e-02|           7|   -1.149341|           2|   -1.397373|
|          56|   -4.052172|  7.3729e-02|           7|   -1.162358|           2|   -1.390230|
|          57|   -4.069857|  7.2987e-02|           7|   -1.172074|           2|   -1.386152|
|          58|   -4.087416|  7.2259e-02|           7|   -1.176726|           2|   -1.384316|
|          59|   -4.104789|  7.1550e-02|           7|   -1.174639|           2|   -1.384143|
|          60|   -4.121728|  7.0866e-02|           7|   -1.165255|           2|   -1.384565|
|          61|   -4.138289|  7.0211e-02|           7|   -1.149123|           2|   -1.386488|
|          62|   -4.154411|  6.9590e-02|           7|   -1.128066|           2|   -1.390198|
|          63|   -4.170285|  6.9006e-02|           7|   -1.104540|           2|   -1.395886|
|          64|   -4.186142|  6.8463e-02|           7|   -1.080704|           2|   -1.401194|
|          65|   -4.202156|  6.7962e-02|           7|   -1.058535|           2|   -1.409726|
|          66|   -4.218718|  6.7507e-02|           7|   -1.039283|           2|   -1.420893|
|          67|   -4.235932|  6.7099e-02|           7|   -1.023936|           2|   -1.434562|
|          68|   -4.253997|  6.6738e-02|           7|   -1.013017|           2|   -1.450613|
|          69|   -4.272621|  6.6424e-02|           7|   -1.007075|           2|   -1.468417|
|          70|   -4.291497|  6.6156e-02|           7|   -1.006388|           2|   -1.489532|
|          71|   -4.309913|  6.5934e-02|           7|   -1.011182|           2|   -1.512899|
|          72|   -4.326929|  6.5755e-02|           7|   -1.021545|           2|   -1.538158|
|          73|   -4.341455|  6.5616e-02|           7|   -1.037208|           2|   -1.564431|
|          74|   -4.352512|  6.5516e-02|           7|   -1.057563|           1|   -1.015549|
|          75|   -4.359410|  6.5451e-02|           7|   -1.081557|           1|   -1.034002|
|          76|   -4.362131|  6.5417e-02|           7|   -1.107480|           1|   -1.049305|
|          77|   -4.360986|  6.5412e-02|           7|   -1.133677|           1|   -1.067264|
|          78|   -4.356837|  6.5430e-02|           6|   -1.022769|           1|   -1.086818|
|          79|   -4.350222|  6.5471e-02|           6|   -1.048489|           1|   -1.107109|
|          80|   -4.343004|  6.5527e-02|           6|   -1.065849|           1|   -1.125965|
|          81|   -4.336901|  6.5598e-02|           6|   -1.076573|           1|   -1.144972|
|          82|   -4.331794|  6.5683e-02|           6|   -1.082582|           1|   -1.164068|
|          83|   -4.328289|  6.5779e-02|           6|   -1.085293|           1|   -1.182004|
|          84|   -4.326905|  6.5881e-02|           6|   -1.086151|           1|   -1.199785|
|          85|   -4.327788|  6.5988e-02|           6|   -1.086455|           1|   -1.217908|
|          86|   -4.330965|  6.6096e-02|           6|   -1.087154|           1|   -1.235922|
|          87|   -4.336357|  6.6205e-02|           6|   -1.088902|           1|   -1.253674|
|          88|   -4.343829|  6.6313e-02|           6|   -1.092151|           1|   -1.270739|
|          89|   -4.353131|  6.6421e-02|           6|   -1.097173|           1|   -1.286882|
|          90|   -4.363981|  6.6526e-02|           6|   -1.104052|           1|   -1.301002|
|          91|   -4.376050|  6.6628e-02|           6|   -1.112681|           1|   -1.311636|
|          92|   -4.388980|  6.6728e-02|           6|   -1.122740|           1|   -1.319305|
|          93|   -4.402396|  6.6824e-02|           6|   -1.133645|           1|   -1.320945|
|          94|   -4.415978|  6.6917e-02|           6|   -1.144474|           1|   -1.319780|
|          95|   -4.429486|  6.7006e-02|           6|   -1.153976|           1|   -1.314555|
|          96|   -4.442786|  6.7092e-02|           6|   -1.160684|           1|   -1.305664|
|          97|   -4.455873|  6.7174e-02|           6|   -1.163176|           1|   -1.293685|
|          98|   -4.467968|  6.7253e-02|           6|   -1.161204|           1|   -1.279248|
|          99|   -4.481998|  6.7329e-02|           6|   -1.152281|           1|   -1.262672|
|         100|   -4.495666|  6.7402e-02|           6|   -1.139312|           1|   -1.244344|
|         101|   -4.510392|  6.7472e-02|           6|   -1.122662|           1|   -1.224621|
|         102|   -4.526635|  6.7539e-02|           6|   -1.103542|           1|   -1.203751|
|         103|   -4.544566|  6.7603e-02|           6|   -1.083365|           1|   -1.181943|
|         104|   -4.564694|  6.7664e-02|           6|   -1.062754|           1|   -1.159358|
|         105|   -4.587330|  6.7723e-02|           6|   -1.042114|           1|   -1.136160|
|         106|   -4.612708|  6.7778e-02|           6|   -1.021636|           1|   -1.112537|
|         107|   -4.640962|  6.7831e-02|           6|   -1.001353|           1|   -1.088749|
|         108|   -4.672101|  6.7879e-02|           7|   -1.291561|           1|   -1.065197|
|         109|   -4.707272|  6.7925e-02|           7|   -1.274958|           1|   -1.042434|
|         110|   -4.744092|  6.7970e-02|           7|   -1.257783|           1|   -1.021331|
|         111|   -4.782772|  6.8013e-02|           7|   -1.239686|           1|   -1.002998|
|         112|   -4.822875|  6.8053e-02|           7|   -1.220549|           2|   -1.807160|
|         113|   -4.863717|  6.8089e-02|           7|   -1.201149|           1|   -1.004917|
|         114|   -4.904132|  6.8122e-02|           7|   -1.182201|           1|   -1.004287|
|         115|   -4.943030|  6.8152e-02|           7|   -1.164727|           1|   -1.009243|
|         116|   -4.979375|  6.8179e-02|           7|   -1.149410|           1|   -1.023183|
|         117|   -5.011965|  6.8204e-02|           7|   -1.136896|           1|   -1.045504|
|         118|   -5.040122|  6.8226e-02|           7|   -1.127524|           1|   -1.074426|
|         119|   -5.063536|  6.8246e-02|           7|   -1.121321|           1|   -1.107489|
|         120|   -5.082225|  6.8264e-02|           7|   -1.118169|           1|   -1.142199|
|         121|   -5.096503|  6.8279e-02|           7|   -1.117801|           1|   -1.176179|
|         122|   -5.106855|  6.8293e-02|           7|   -1.119885|           1|   -1.207585|
|         123|   -5.113704|  6.8305e-02|           7|   -1.124116|           1|   -1.235032|
|         124|   -5.117704|  6.8315e-02|           7|   -1.130031|           1|   -1.257781|
|         125|   -5.119401|  6.8324e-02|           7|   -1.137246|           1|   -1.275579|
|         126|   -5.119409|  6.8332e-02|           7|   -1.145257|           1|   -1.288585|
|         127|   -5.118315|  6.8339e-02|           7|   -1.153613|           1|   -1.297112|
|         128|   -5.116748|  6.8345e-02|           7|   -1.161793|           1|   -1.301624|
|         129|   -5.115370|  6.8351e-02|           7|   -1.169137|           1|   -1.302531|
|         130|   -5.114666|  6.8356e-02|           7|   -1.175158|           1|   -1.300192|
|         131|   -5.115120|  6.8361e-02|           7|   -1.179411|           1|   -1.294879|
|         132|   -5.117068|  6.8365e-02|           7|   -1.181291|           1|   -1.286936|
|         133|   -5.120961|  6.8369e-02|           7|   -1.180447|           1|   -1.276611|
|         134|   -5.126869|  6.8373e-02|           7|   -1.176815|           1|   -1.264188|
|         135|   -5.134896|  6.8376e-02|           7|   -1.170445|           1|   -1.249955|
|         136|   -5.145106|  6.8380e-02|           7|   -1.161486|           1|   -1.234200|
|         137|   -5.157412|  6.8383e-02|           7|   -1.150492|           1|   -1.217209|
|         138|   -5.171612|  6.8387e-02|           7|   -1.137806|           1|   -1.199272|
|         139|   -5.187519|  6.8390e-02|           7|   -1.123996|           1|   -1.180655|
|         140|   -5.204652|  6.8393e-02|           7|   -1.109764|           1|   -1.161605|
|         141|   -5.222519|  6.8395e-02|           7|   -1.095751|           1|   -1.142415|
|         142|   -5.240540|  6.8397e-02|           7|   -1.082559|           1|   -1.123382|
|         143|   -5.258056|  6.8399e-02|           7|   -1.070732|           1|   -1.104822|
|         144|   -5.274413|  6.8401e-02|           7|   -1.060689|           1|   -1.087054|
|         145|   -5.289055|  6.8402e-02|           7|   -1.052676|           1|   -1.070528|
|         146|   -5.301611|  6.8403e-02|           7|   -1.046747|           1|   -1.055502|
|         147|   -5.311961|  6.8404e-02|           7|   -1.042719|           1|   -1.042332|
|         148|   -5.320192|  6.8404e-02|           7|   -1.040489|           1|   -1.031276|
|         149|   -5.326815|  6.8403e-02|           7|   -1.039401|           1|   -1.022475|
|         150|   -5.332319|  6.8403e-02|           7|   -1.039082|           1|   -1.015932|
|         151|   -5.337286|  6.8401e-02|           7|   -1.039088|           1|   -1.011397|
|         152|   -5.342321|  6.8400e-02|           7|   -1.038937|           1|   -1.008517|
|         153|   -5.346992|  6.8398e-02|           7|   -1.039200|           1|   -1.005585|
|         154|   -5.354161|  6.8395e-02|           7|   -1.037234|           1|   -1.004483|
|         155|   -5.362292|  6.8393e-02|           7|   -1.034522|           1|   -1.005033|
|         156|   -5.371596|  6.8390e-02|           7|   -1.030889|           1|   -1.006113|
|         157|   -5.382196|  6.8387e-02|           7|   -1.026256|           1|   -1.008975|
|         158|   -5.394066|  6.8384e-02|           7|   -1.020601|           1|   -1.010085|
|         159|   -5.406996|  6.8381e-02|           7|   -1.014101|           1|   -1.009596|
|         160|   -5.420695|  6.8377e-02|           7|   -1.007005|           1|   -1.009483|
|         161|   -5.434830|  6.8375e-02|           8|   -1.183474|           1|   -1.009557|
|         162|   -5.449417|  6.8372e-02|           8|   -1.175149|           1|   -1.009796|
|         163|   -5.463572|  6.8370e-02|           8|   -1.168078|           1|   -1.010319|
|         164|   -5.476955|  6.8367e-02|           8|   -1.162591|           1|   -1.011277|
|         165|   -5.489315|  6.8365e-02|           8|   -1.158674|           1|   -1.012755|
|         166|   -5.500605|  6.8362e-02|           8|   -1.155914|           1|   -1.014541|
|         167|   -5.510556|  6.8360e-02|           8|   -1.154231|           1|   -1.015775|
|         168|   -5.519421|  6.8358e-02|           8|   -1.153321|           1|   -1.018798|
|         169|   -5.527231|  6.8357e-02|           8|   -1.153274|           1|   -1.023664|
|         170|   -5.534183|  6.8355e-02|           8|   -1.153978|           1|   -1.028892|
|         171|   -5.540452|  6.8354e-02|           8|   -1.155231|           1|   -1.034194|
|         172|   -5.545920|  6.8353e-02|           8|   -1.157709|           1|   -1.039404|
|         173|   -5.551314|  6.8353e-02|           8|   -1.160012|           1|   -1.044390|
|         174|   -5.556920|  6.8353e-02|           8|   -1.161939|           1|   -1.049147|
|         175|   -5.562222|  6.8353e-02|           8|   -1.164396|           1|   -1.053440|
|         176|   -5.567537|  6.8353e-02|           8|   -1.167011|           1|   -1.057181|
|         177|   -5.572931|  6.8354e-02|           8|   -1.169739|           1|   -1.060363|
|         178|   -5.578447|  6.8355e-02|           8|   -1.172555|           1|   -1.063024|
|         179|   -5.584100|  6.8356e-02|           8|   -1.175482|           1|   -1.065237|
|         180|   -5.589878|  6.8357e-02|           8|   -1.178551|           1|   -1.067258|
|         181|   -5.595811|  6.8359e-02|           8|   -1.181804|           1|   -1.069697|
|         182|   -5.601846|  6.8360e-02|           7|   -1.003451|           1|   -1.072242|
|         183|   -5.607482|  6.8362e-02|           7|   -1.008763|           1|   -1.074653|
|         184|   -5.613492|  6.8364e-02|           7|   -1.014448|           1|   -1.077186|
|         185|   -5.619840|  6.8366e-02|           7|   -1.018871|           1|   -1.079789|
|         186|   -5.626172|  6.8369e-02|           7|   -1.023010|           1|   -1.082758|
|         187|   -5.632348|  6.8371e-02|           7|   -1.027650|           1|   -1.086619|
|         188|   -5.638508|  6.8374e-02|           7|   -1.032511|           1|   -1.091485|
|         189|   -5.644627|  6.8377e-02|           7|   -1.037518|           1|   -1.097452|
|         190|   -5.650654|  6.8381e-02|           7|   -1.042656|           1|   -1.104608|
|         191|   -5.656555|  6.8384e-02|           7|   -1.047848|           1|   -1.113010|
|         192|   -5.662310|  6.8388e-02|           7|   -1.052980|           1|   -1.122687|
|         193|   -5.667904|  6.8392e-02|           7|   -1.057969|           1|   -1.133643|
|         194|   -5.673323|  6.8396e-02|           7|   -1.062771|           1|   -1.145860|
|         195|   -5.678554|  6.8400e-02|           7|   -1.067366|           1|   -1.159311|
|         196|   -5.683590|  6.8404e-02|           7|   -1.071752|           1|   -1.173960|
|         197|   -5.688422|  6.8409e-02|           7|   -1.075938|           1|   -1.189771|
|         198|   -5.693048|  6.8413e-02|           7|   -1.079941|           1|   -1.206710|
|         199|   -5.697465|  6.8418e-02|           7|   -1.083784|           1|   -1.224747|
|         200|   -5.701674|  6.8423e-02|           7|   -1.087477|           1|   -1.243893|
|         201|   -5.705675|  6.8428e-02|           7|   -1.091075|           1|   -1.264102|
|         202|   -5.709477|  6.8434e-02|           7|   -1.094554|           1|   -1.285380|
|         203|   -5.713074|  6.8439e-02|           7|   -1.097960|           1|   -1.307735|
|         204|   -5.716473|  6.8445e-02|           7|   -1.101317|           1|   -1.331183|
|         205|   -5.719672|  6.8451e-02|           7|   -1.104697|           1|   -1.355743|
|         206|   -5.722691|  6.8456e-02|           7|   -1.108052|           1|   -1.381421|
|         207|   -5.725542|  6.8462e-02|           7|   -1.111486|           1|   -1.408212|
|         208|   -5.728212|  6.8468e-02|           7|   -1.115073|           1|   -1.436078|
|         209|   -5.730723|  6.8475e-02|           7|   -1.120182|           1|   -1.464941|
|         210|   -5.730587|  6.8481e-02|           7|   -1.130139|           1|   -1.494651|
|         211|   -5.734354|  6.8487e-02|           7|   -1.129536|           1|   -1.524966|
|         212|   -5.737063|  6.8493e-02|           7|   -1.131949|           1|   -1.555512|
|         213|   -5.739387|  6.8500e-02|           7|   -1.135479|           1|   -1.585766|
|         214|   -5.741337|  6.8506e-02|           7|   -1.140121|           1|   -1.615040|
|         215|   -5.743195|  6.8513e-02|           7|   -1.145018|           1|   -1.642494|
|         216|   -5.744989|  6.8519e-02|           7|   -1.150128|           1|   -1.667181|
|         217|   -5.746738|  6.8525e-02|           7|   -1.155465|           1|   -1.688147|
|         218|   -5.748453|  6.8532e-02|           7|   -1.161060|           1|   -1.704564|
|         219|   -5.750147|  6.8538e-02|           7|   -1.166931|           1|   -1.715875|
|         220|   -5.751827|  6.8544e-02|           7|   -1.173095|           1|   -1.721897|
|         221|   -5.753499|  6.8551e-02|           7|   -1.179560|           1|   -1.722834|
|         222|   -5.755167|  6.8557e-02|           7|   -1.186329|           1|   -1.719206|
|         223|   -5.756835|  6.8563e-02|           7|   -1.193402|           1|   -1.711722|
|         224|   -5.758503|  6.8569e-02|           7|   -1.200773|           1|   -1.701140|
|         225|   -5.760172|  6.8575e-02|           7|   -1.208434|           1|   -1.688169|
|         226|   -5.761841|  6.8581e-02|           7|   -1.216370|           1|   -1.673411|
|         227|   -5.763508|  6.8587e-02|           7|   -1.224563|           1|   -1.657333|
|         228|   -5.765173|  6.8593e-02|           7|   -1.232990|           1|   -1.640281|
|         229|   -5.766833|  6.8599e-02|           7|   -1.241623|           1|   -1.622490|
|         230|   -5.768489|  6.8605e-02|           6|   -1.003822|           1|   -1.604689|
|         231|   -5.769825|  6.8611e-02|           6|   -1.013561|           1|   -1.586327|
|         232|   -5.771410|  6.8616e-02|           6|   -1.023541|           1|   -1.567441|
|         233|   -5.773165|  6.8622e-02|           6|   -1.032091|           1|   -1.547998|
|         234|   -5.774829|  6.8628e-02|           6|   -1.040854|           1|   -1.527925|
|         235|   -5.776444|  6.8633e-02|           6|   -1.049766|           1|   -1.507153|
|         236|   -5.778068|  6.8639e-02|           6|   -1.058555|           1|   -1.485639|
|         237|   -5.779707|  6.8644e-02|           6|   -1.067241|           1|   -1.463377|
|         238|   -5.781351|  6.8650e-02|           6|   -1.075890|           1|   -1.440401|
|         239|   -5.782996|  6.8655e-02|           6|   -1.084479|           1|   -1.416783|
|         240|   -5.784640|  6.8661e-02|           6|   -1.092957|           1|   -1.392644|
|         241|   -5.786263|  6.8666e-02|           6|   -1.101341|           1|   -1.368136|
|         242|   -5.787795|  6.8671e-02|           6|   -1.109848|           1|   -1.343439|
|         243|   -5.788875|  6.8677e-02|           6|   -1.119345|           1|   -1.318688|
|         244|   -5.785786|  6.8682e-02|           6|   -1.148830|           1|   -1.294746|
|         245|   -5.766989|  6.8688e-02|           5|   -1.021130|           1|   -1.273790|
|         246|   -5.792191|  6.8692e-02|           6|   -1.151340|           1|   -1.250404|
|         247|   -5.794013|  6.8698e-02|           6|   -1.155657|           1|   -1.229406|
|         248|   -5.798145|  6.8703e-02|           6|   -1.150240|           1|   -1.209746|
|         249|   -5.800339|  6.8708e-02|           6|   -1.154616|           1|   -1.191260|
|         250|   -5.802247|  6.8713e-02|           6|   -1.160675|           1|   -1.174528|
|         251|   -5.804133|  6.8719e-02|           6|   -1.166984|           1|   -1.159989|
|         252|   -5.806037|  6.8724e-02|           6|   -1.173391|           1|   -1.147867|
|         253|   -5.807943|  6.8729e-02|           6|   -1.179975|           1|   -1.138293|
|         254|   -5.809863|  6.8734e-02|           6|   -1.186565|           1|   -1.131327|
|         255|   -5.811797|  6.8739e-02|           6|   -1.193057|           1|   -1.126932|
|         256|   -5.813741|  6.8744e-02|           6|   -1.199467|           1|   -1.124999|
|         257|   -5.815695|  6.8749e-02|           6|   -1.205888|           1|   -1.125369|
|         258|   -5.817657|  6.8754e-02|           5|   -1.003548|           1|   -1.129826|
|         259|   -5.819339|  6.8759e-02|           5|   -1.016728|           1|   -1.134630|
|         260|   -5.821333|  6.8764e-02|           5|   -1.024086|           1|   -1.141014|
|         261|   -5.823388|  6.8768e-02|           5|   -1.027820|           1|   -1.148994|
|         262|   -5.825352|  6.8773e-02|           5|   -1.032647|           1|   -1.157999|
|         263|   -5.827290|  6.8778e-02|           5|   -1.038457|           1|   -1.167655|
|         264|   -5.829243|  6.8783e-02|           5|   -1.044444|           1|   -1.177722|
|         265|   -5.831204|  6.8787e-02|           5|   -1.050558|           1|   -1.187946|
|         266|   -5.833160|  6.8792e-02|           5|   -1.057031|           1|   -1.198075|
|         267|   -5.835109|  6.8797e-02|           5|   -1.064005|           1|   -1.207654|
|         268|   -5.837049|  6.8801e-02|           5|   -1.071507|           1|   -1.216745|
|         269|   -5.838978|  6.8806e-02|           5|   -1.079512|           1|   -1.225240|
|         270|   -5.840893|  6.8811e-02|           5|   -1.087987|           1|   -1.233051|
|         271|   -5.842790|  6.8815e-02|           5|   -1.096911|           1|   -1.240130|
|         272|   -5.844665|  6.8819e-02|           5|   -1.106286|           1|   -1.246439|
|         273|   -5.846512|  6.8824e-02|           5|   -1.116138|           1|   -1.251943|
|         274|   -5.848317|  6.8828e-02|           5|   -1.126570|           1|   -1.256593|
|         275|   -5.850029|  6.8833e-02|           5|   -1.138065|           1|   -1.260306|
|         276|   -5.851246|  6.8837e-02|           4|   -1.006856|           1|   -1.262759|
|         277|   -5.837914|  6.8842e-02|           4|   -1.081556|           1|   -1.265727|
|         278|   -5.826588|  6.8846e-02|           3|   -1.005038|           1|   -1.270028|
|         279|   -5.853761|  6.8850e-02|           4|   -1.042031|           1|   -1.267854|
|         280|   -5.856987|  6.8854e-02|           4|   -1.056485|           1|   -1.266529|
|         281|   -5.860077|  6.8858e-02|           4|   -1.056639|           1|   -1.264248|
|         282|   -5.861837|  6.8863e-02|           4|   -1.065851|           1|   -1.260220|
|         283|   -5.863443|  6.8867e-02|           4|   -1.077697|           1|   -1.255051|
|         284|   -5.864945|  6.8871e-02|           4|   -1.089327|           1|   -1.249267|
|         285|   -5.866399|  6.8875e-02|           4|   -1.099981|           1|   -1.243011|
|         286|   -5.867813|  6.8879e-02|           4|   -1.110623|           1|   -1.236300|
|         287|   -5.869190|  6.8884e-02|           4|   -1.121994|           1|   -1.229119|
|         288|   -5.870530|  6.8888e-02|           3|   -1.004359|           1|   -1.223679|
|         289|   -5.871351|  6.8892e-02|           3|   -1.016881|           1|   -1.214547|
|         290|   -5.872542|  6.8896e-02|           3|   -1.030329|           1|   -1.204474|
|         291|   -5.873800|  6.8900e-02|           3|   -1.042322|           1|   -1.194050|
|         292|   -5.875019|  6.8904e-02|           3|   -1.052757|           1|   -1.182898|
|         293|   -5.876182|  6.8908e-02|           3|   -1.063076|           1|   -1.170909|
|         294|   -5.877287|  6.8912e-02|           3|   -1.074584|           1|   -1.158250|
|         295|   -5.878339|  6.8916e-02|           3|   -1.087007|           1|   -1.144993|
|         296|   -5.879340|  6.8920e-02|           3|   -1.099509|           1|   -1.131082|
|         297|   -5.880291|  6.8924e-02|           3|   -1.111625|           1|   -1.116457|
|         298|   -5.881196|  6.8928e-02|           3|   -1.123354|           1|   -1.101086|
|         299|   -5.882056|  6.8932e-02|           3|   -1.134907|           1|   -1.084931|
|         300|   -5.882874|  6.8936e-02|           3|   -1.146467|           1|   -1.067944|
|         301|   -5.883651|  6.8940e-02|           3|   -1.158116|           1|   -1.050079|
|         302|   -5.884385|  6.8944e-02|           3|   -1.169875|           1|   -1.031306|
|         303|   -5.885077|  6.8948e-02|           3|   -1.181742|           1|   -1.011618|
|         304|   -5.885729|  6.8952e-02|           3|   -1.193709|           2|   -1.594213|
|         305|   -5.886339|  6.8956e-02|           3|   -1.205858|           2|   -1.549861|
|         306|   -5.886909|  6.8960e-02|           3|   -1.218088|           2|   -1.511914|
|         307|   -5.887437|  6.8964e-02|           3|   -1.230538|           2|   -1.481249|
|         308|   -5.887924|  6.8968e-02|           2|   -1.004657|           2|   -1.456122|
|         309|   -5.887939|  6.8972e-02|           2|   -1.020760|           2|   -1.433450|
|         310|   -5.888243|  6.8976e-02|           2|   -1.009606|           2|   -1.413568|
|         311|   -5.888746|  6.8980e-02|           2|   -1.014724|           2|   -1.395652|
|         312|   -5.889225|  6.8984e-02|           2|   -1.027310|           2|   -1.377944|
|         313|   -5.889627|  6.8988e-02|           2|   -1.038113|           2|   -1.361020|
|         314|   -5.889934|  6.8992e-02|           2|   -1.046698|           2|   -1.345361|
|         315|   -5.890163|  6.8996e-02|           2|   -1.055654|           2|   -1.330858|
|         316|   -5.890341|  6.8999e-02|           2|   -1.065361|           2|   -1.317704|
|         317|   -5.890479|  6.9003e-02|           2|   -1.075539|           2|   -1.306195|
|         318|   -5.890573|  6.9007e-02|           2|   -1.085854|           2|   -1.296409|
|         319|   -5.890619|  6.9011e-02|           2|   -1.096032|           2|   -1.288342|
|         320|   -5.890615|  6.9015e-02|           2|   -1.105932|           2|   -1.282017|
|         321|   -5.890563|  6.9019e-02|           2|   -1.115463|           2|   -1.277451|
|         322|   -5.890466|  6.9023e-02|           2|   -1.124548|           2|   -1.274634|
|         323|   -5.890324|  6.9027e-02|           2|   -1.133187|           2|   -1.273533|
|         324|   -5.890136|  6.9030e-02|           2|   -1.141467|           2|   -1.274083|
|         325|   -5.889901|  6.9034e-02|           2|   -1.149513|           2|   -1.276190|
|         326|   -5.889619|  6.9038e-02|           2|   -1.157437|           2|   -1.279739|
|         327|   -5.889288|  6.9042e-02|           2|   -1.165288|           2|   -1.284602|
|         328|   -5.888908|  6.9046e-02|           2|   -1.173034|           2|   -1.290640|
|         329|   -5.888479|  6.9050e-02|           2|   -1.180594|           2|   -1.297704|
|         330|   -5.888001|  6.9053e-02|           2|   -1.187888|           2|   -1.305638|
|         331|   -5.887472|  6.9057e-02|           2|   -1.194884|           2|   -1.314285|
|         332|   -5.886892|  6.9061e-02|           2|   -1.201601|           2|   -1.323490|
|         333|   -5.886260|  6.9065e-02|           2|   -1.208099|           2|   -1.333109|
|         334|   -5.885576|  6.9069e-02|           2|   -1.214452|           2|   -1.343002|
|         335|   -5.884837|  6.9073e-02|           2|   -1.220726|           2|   -1.353045|
|         336|   -5.884044|  6.9076e-02|           2|   -1.226963|           2|   -1.363124|
|         337|   -5.883195|  6.9080e-02|           2|   -1.233177|           2|   -1.373137|
|         338|   -5.882289|  6.9084e-02|           2|   -1.239358|           2|   -1.382998|
|         339|   -5.881325|  6.9088e-02|           2|   -1.245483|           2|   -1.392634|
|         340|   -5.880302|  6.9092e-02|           2|   -1.251527|           2|   -1.401986|
|         341|   -5.879219|  6.9096e-02|           2|   -1.257466|           2|   -1.411009|
|         342|   -5.878075|  6.9100e-02|           2|   -1.263288|           2|   -1.419665|
|         343|   -5.876869|  6.9103e-02|           2|   -1.268986|           2|   -1.427926|
|         344|   -5.875599|  6.9107e-02|           2|   -1.274558|           2|   -1.435771|
|         345|   -5.874265|  6.9111e-02|           2|   -1.280005|           2|   -1.443183|
|         346|   -5.872864|  6.9115e-02|           2|   -1.285326|           2|   -1.450148|
|         347|   -5.871396|  6.9119e-02|           2|   -1.290521|           2|   -1.456659|
|         348|   -5.869858|  6.9123e-02|           2|   -1.295587|           2|   -1.462709|
|         349|   -5.868250|  6.9127e-02|           2|   -1.300518|           2|   -1.468298|
|         350|   -5.866570|  6.9131e-02|           2|   -1.305308|           2|   -1.473428|
|         351|   -5.864816|  6.9134e-02|           2|   -1.309950|           2|   -1.478108|
|         352|   -5.862986|  6.9138e-02|           2|   -1.314437|           2|   -1.482350|
|         353|   -5.861078|  6.9142e-02|           1|   -1.008056|           2|   -1.483640|
|         354|   -5.857002|  6.9146e-02|           2|   -1.309526|           2|   -1.489276|
|         355|   -5.856349|  6.9150e-02|           1|   -1.079113|           2|   -1.492694|
|         356|   -5.853396|  6.9154e-02|           1|   -1.020146|           2|   -1.495761|
|         357|   -5.850153|  6.9158e-02|           1|   -1.032808|           2|   -1.499825|
|         358|   -5.847867|  6.9162e-02|           1|   -1.057734|           2|   -1.503513|
|         359|   -5.845798|  6.9166e-02|           1|   -1.065357|           2|   -1.505672|
|         360|   -5.843451|  6.9170e-02|           1|   -1.062749|           2|   -1.507281|
|         361|   -5.840849|  6.9174e-02|           1|   -1.064433|           2|   -1.509623|
|         362|   -5.838139|  6.9178e-02|           1|   -1.069242|           2|   -1.512233|
|         363|   -5.835338|  6.9182e-02|           1|   -1.072427|           2|   -1.513896|
|         364|   -5.832421|  6.9186e-02|           1|   -1.074517|           2|   -1.514693|
|         365|   -5.829370|  6.9190e-02|           1|   -1.076408|           2|   -1.515618|
|         366|   -5.826184|  6.9194e-02|           1|   -1.078076|           2|   -1.517004|
|         367|   -5.822869|  6.9198e-02|           1|   -1.079911|           2|   -1.518427|
|         368|   -5.819425|  6.9202e-02|           1|   -1.082243|           2|   -1.519628|
|         369|   -5.815844|  6.9207e-02|           1|   -1.085322|           2|   -1.520682|
|         370|   -5.812115|  6.9211e-02|           1|   -1.088373|           2|   -1.521562|
|         371|   -5.808226|  6.9215e-02|           1|   -1.091520|           2|   -1.522163|
|         372|   -5.804169|  6.9219e-02|           1|   -1.095333|           2|   -1.522591|
|         373|   -5.799936|  6.9223e-02|           1|   -1.099951|           2|   -1.523026|
|         374|   -5.795517|  6.9227e-02|           1|   -1.104729|           2|   -1.523424|
|         375|   -5.790898|  6.9232e-02|           1|   -1.109067|           2|   -1.523592|
|         376|   -5.786062|  6.9236e-02|           1|   -1.113244|           2|   -1.523477|
|         377|   -5.780993|  6.9240e-02|           1|   -1.117715|           2|   -1.523209|
|         378|   -5.775680|  6.9244e-02|           1|   -1.122483|           2|   -1.522921|
|         379|   -5.770108|  6.9246e-02|           5|   -1.279735|           1|   -1.051966|
|         380|   -4.745687|  6.9251e-02|           2|   -1.530441|           1|   -1.005688|
|         381|   -4.819390|  6.9256e-02|           2|   -1.663020|           2|   -1.527864|
|         382|   -5.302476|  6.9261e-02|           2|   -1.249253|           2|   -1.498594|
|         383|   -5.420458|  6.9265e-02|           2|   -1.178052|           2|   -1.466222|
|         384|   -5.640869|  6.9269e-02|           3|   -1.436921|           2|   -1.423645|
|         385|   -5.654873|  6.9273e-02|           2|   -1.035525|           2|   -1.386941|
|         386|   -5.691886|  6.9277e-02|           3|   -1.418733|           2|   -1.364510|
|         387|   -5.694693|  6.9281e-02|           2|   -1.021473|           2|   -1.341116|
|         388|   -5.699504|  6.9285e-02|           2|   -1.024300|           2|   -1.328325|
|         389|   -5.693617|  6.9289e-02|           2|   -1.045807|           2|   -1.320672|
|         390|   -5.686076|  6.9293e-02|           2|   -1.070420|           2|   -1.315733|
|         391|   -5.677165|  6.9297e-02|           2|   -1.096038|           2|   -1.316251|
|         392|   -5.667034|  6.9301e-02|           2|   -1.123278|           2|   -1.323430|
|         393|   -5.655997|  6.9305e-02|           2|   -1.151566|           2|   -1.336624|
|         394|   -5.644162|  6.9309e-02|           2|   -1.016167|           2|   -1.359093|
|         395|   -5.566337|  6.9313e-02|           2|   -1.322246|           2|   -1.381773|
|         396|   -5.602887|  6.9317e-02|           2|   -1.307861|           2|   -1.406294|
|         397|   -5.598879|  6.9321e-02|           2|   -1.320957|           2|   -1.427673|
|         398|   -5.587932|  6.9324e-02|           2|   -1.336689|           2|   -1.438858|
|         399|   -5.572753|  6.9328e-02|           2|   -1.352190|           2|   -1.439058|
|         400|   -5.556064|  6.9331e-02|           1|   -1.016074|           2|   -1.428241|
|         401|   -5.535459|  6.9334e-02|           1|   -1.065527|           2|   -1.419942|
|         402|   -5.515963|  6.9338e-02|           1|   -1.104968|           2|   -1.417656|
|         403|   -5.496578|  6.9341e-02|           1|   -1.132169|           2|   -1.416666|
|         404|   -5.476223|  6.9345e-02|           1|   -1.138306|           2|   -1.415624|
|         405|   -5.454399|  6.9348e-02|           1|   -1.147951|           2|   -1.418182|
|         406|   -5.431423|  6.9351e-02|           1|   -1.158063|           2|   -1.426096|
|         407|   -5.407355|  6.9355e-02|           4|   -1.477500|           1|   -1.613859|
|         408|   -4.597500|  6.9356e-02|           2|   -1.363293|           1|   -1.524718|
|         409|   -4.638034|  6.9358e-02|           2|   -1.448523|           1|   -1.551901|
|         410|   -5.039572|  6.9359e-02|           2|   -1.126862|           1|   -1.570347|
|         411|   -5.139727|  6.9361e-02|           2|   -1.091202|           1|   -1.558510|
|         412|   -5.236770|  6.9362e-02|           2|   -1.035628|           1|   -1.530142|
|         413|   -5.242565|  6.9363e-02|           2|   -1.063562|           1|   -1.491417|
|         414|   -5.220813|  6.9365e-02|           2|   -1.101066|           1|   -1.452651|
|         415|   -5.197073|  6.9366e-02|           2|   -1.154600|           1|   -1.405791|
|         416|   -5.168374|  6.9366e-02|           2|   -1.197156|           1|   -1.349400|
|         417|   -5.140294|  6.9367e-02|           2|   -1.205131|           1|   -1.284902|
|         418|   -5.102000|  6.9368e-02|           2|   -1.264273|           1|   -1.204128|
|         419|   -5.075908|  6.9368e-02|           2|   -1.288420|           1|   -1.117824|
|         420|   -5.043379|  6.9369e-02|           2|   -1.314270|           1|   -1.033688|
|         421|   -5.009337|  6.9368e-02|           1|   -1.001979|           2|   -1.689477|
|         422|   -4.971439|  6.9367e-02|           1|   -1.033082|           2|   -1.612871|
|         423|   -4.933755|  6.9367e-02|           1|   -1.061136|           2|   -1.556178|
|         424|   -4.896479|  6.9368e-02|           1|   -1.075137|           2|   -1.518776|
|         425|   -4.858730|  6.9368e-02|           1|   -1.069606|           2|   -1.498139|
|         426|   -4.819820|  6.9367e-02|           1|   -1.070283|           2|   -1.494731|
|         427|   -4.780370|  6.9366e-02|           1|   -1.072190|           2|   -1.502968|
|         428|   -4.740896|  6.9363e-02|           1|   -1.069321|           2|   -1.512928|
|         429|   -4.701778|  6.9361e-02|           1|   -1.063531|           2|   -1.519156|
|         430|   -4.663478|  6.9357e-02|           1|   -1.058309|           2|   -1.521220|
|         431|   -4.626686|  6.9352e-02|           1|   -1.053180|           2|   -1.519510|
|         432|   -4.590799|  6.9346e-02|           1|   -1.046538|           2|   -1.514920|
|         433|   -4.562022|  6.9338e-02|           1|   -1.036637|           2|   -1.509489|
|         434|   -4.539944|  6.9331e-02|           1|   -1.026657|           2|   -1.504898|
|         435|   -4.524716|  6.9325e-02|           1|   -1.016101|           2|   -1.501661|
|         436|   -4.518215|  6.9320e-02|           1|   -1.002063|           2|   -1.499848|
|         437|   -4.521601|  6.9326e-02|           2|   -1.066316|           2|   -1.499273|
|         438|   -4.535138|  6.9324e-02|           2|   -1.071032|           2|   -1.503070|
|         439|   -4.551279|  6.9312e-02|           2|   -1.076080|           2|   -1.502983|
|         440|   -4.557832|  6.9295e-02|           2|   -1.091324|           2|   -1.503071|
|         441|   -4.545529|  6.9278e-02|           2|   -1.109722|           2|   -1.507073|
|         442|   -4.515941|  6.9262e-02|           2|   -1.117438|           2|   -1.512762|
|         443|   -4.481914|  6.9250e-02|           2|   -1.110001|           2|   -1.517861|
|         444|   -4.456276|  6.9246e-02|           2|   -1.089118|           2|   -1.522009|
|         445|   -4.446094|  6.9254e-02|           2|   -1.056564|           2|   -1.525360|
|         446|   -4.453412|  6.9276e-02|           2|   -1.010955|           2|   -1.527843|
|         447|   -4.478263|  6.9300e-02|           3|   -1.154816|           2|   -1.529041|
|         448|   -4.515425|  6.9335e-02|           3|   -1.086563|           2|   -1.527881|
|         449|   -4.565514|  6.9377e-02|           3|   -1.029330|           2|   -1.530249|
|         450|   -4.625279|  6.9392e-02|           4|   -1.365440|           2|   -1.533783|
|         451|   -4.691850|  6.9437e-02|           4|   -1.331174|           2|   -1.538648|
|         452|   -4.760343|  6.9481e-02|           4|   -1.275606|           2|   -1.543064|
|         453|   -4.823010|  6.9518e-02|           4|   -1.224617|           2|   -1.547944|
|         454|   -4.873672|  6.9553e-02|           4|   -1.183077|           2|   -1.555301|
|         455|   -4.909954|  6.9590e-02|           4|   -1.154758|           2|   -1.567650|
|         456|   -4.931693|  6.9632e-02|           4|   -1.144441|           2|   -1.586751|
|         457|   -4.942211|  6.9681e-02|           4|   -1.152076|           2|   -1.613818|
|         458|   -4.946677|  6.9738e-02|           4|   -1.175625|           2|   -1.649873|
|         459|   -4.949551|  6.9800e-02|           3|   -1.026219|           2|   -1.690978|
|         460|   -4.952986|  6.9869e-02|           3|   -1.085675|           1|   -1.008993|
|         461|   -4.959584|  6.9941e-02|           3|   -1.136921|           1|   -1.015302|
|         462|   -4.969729|  7.0014e-02|           3|   -1.179337|           1|   -1.018355|
|         463|   -4.982865|  7.0087e-02|           3|   -1.215024|           1|   -1.015013|
|         464|   -4.999038|  7.0157e-02|           3|   -1.236714|           1|   -1.002065|
|         465|   -5.018020|  7.0224e-02|           3|   -1.241612|           2|   -1.822273|
|         466|   -5.039076|  7.0287e-02|           3|   -1.234857|           2|   -1.738232|
|         467|   -5.061642|  7.0346e-02|           3|   -1.224077|           2|   -1.645607|
|         468|   -5.085481|  7.0398e-02|           3|   -1.212942|           2|   -1.559695|
|         469|   -5.110223|  7.0446e-02|           3|   -1.200698|           2|   -1.484022|
|         470|   -5.133837|  7.0488e-02|           3|   -1.197283|           2|   -1.417267|
|         471|   -5.160561|  7.0525e-02|           3|   -1.184283|           2|   -1.359330|
|         472|   -5.185987|  7.0558e-02|           3|   -1.172518|           2|   -1.309501|
|         473|   -5.211337|  7.0586e-02|           3|   -1.157394|           2|   -1.267085|
|         474|   -5.236246|  7.0612e-02|           3|   -1.138330|           2|   -1.231630|
|         475|   -5.260713|  7.0635e-02|           3|   -1.114637|           2|   -1.202841|
|         476|   -5.284689|  7.0655e-02|           3|   -1.087026|           2|   -1.180521|
|         477|   -5.308131|  7.0674e-02|           3|   -1.056721|           2|   -1.164531|
|         478|   -5.331023|  7.0691e-02|           3|   -1.024974|           2|   -1.154774|
|         479|   -5.353382|  7.0707e-02|           4|   -1.284840|           2|   -1.152102|
|         480|   -5.375498|  7.0722e-02|           4|   -1.225339|           2|   -1.155786|
|         481|   -5.397169|  7.0736e-02|           4|   -1.181706|           2|   -1.164584|
|         482|   -5.418232|  7.0749e-02|           4|   -1.141798|           2|   -1.179687|
|         483|   -5.437750|  7.0761e-02|           4|   -1.110566|           2|   -1.201435|
|         484|   -5.456937|  7.0772e-02|           4|   -1.081392|           2|   -1.229287|
|         485|   -5.479272|  7.0783e-02|           4|   -1.037886|           2|   -1.262893|
|         486|   -5.499490|  7.0794e-02|           4|   -1.005245|           2|   -1.301971|
|         487|   -5.519303|  7.0804e-02|           5|   -1.167273|           2|   -1.346302|
|         488|   -5.538880|  7.0813e-02|           5|   -1.135180|           2|   -1.393874|
|         489|   -5.558247|  7.0821e-02|           5|   -1.111466|           2|   -1.443884|
|         490|   -5.577469|  7.0829e-02|           5|   -1.087716|           2|   -1.494170|
|         491|   -5.596468|  7.0836e-02|           5|   -1.066446|           2|   -1.541911|
|         492|   -5.615224|  7.0843e-02|           5|   -1.047644|           1|   -1.016864|
|         493|   -5.633725|  7.0849e-02|           5|   -1.029737|           1|   -1.035979|
|         494|   -5.651946|  7.0854e-02|           5|   -1.012165|           1|   -1.040677|
|         495|   -5.669876|  7.0859e-02|           6|   -1.251499|           1|   -1.038859|
|         496|   -5.687820|  7.0864e-02|           6|   -1.235416|           1|   -1.032076|
|         497|   -5.705197|  7.0868e-02|           6|   -1.227021|           1|   -1.020846|
|         498|   -5.722158|  7.0872e-02|           6|   -1.225125|           1|   -1.006812|
|         499|   -5.738795|  7.0875e-02|           6|   -1.226891|           2|   -1.617028|
|         500|   -5.755134|  7.0878e-02|           6|   -1.229002|           2|   -1.589050|
|         501|   -5.771175|  7.0881e-02|           6|   -1.229257|           2|   -1.568652|
|         502|   -5.785436|  7.0884e-02|           6|   -1.239500|           2|   -1.553154|
|         503|   -5.801631|  7.0886e-02|           6|   -1.229037|           2|   -1.541979|
|         504|   -5.816130|  7.0888e-02|           6|   -1.223827|           2|   -1.534089|
|         505|   -5.829933|  7.0890e-02|           6|   -1.219980|           2|   -1.528551|
|         506|   -5.846896|  7.0892e-02|           6|   -1.184738|           2|   -1.524912|
|         507|   -5.861417|  7.0894e-02|           6|   -1.167332|           2|   -1.522885|
|         508|   -5.875712|  7.0895e-02|           6|   -1.149400|           2|   -1.522279|
|         509|   -5.889653|  7.0897e-02|           6|   -1.133458|           2|   -1.522888|
|         510|   -5.903350|  7.0898e-02|           6|   -1.119048|           2|   -1.524453|
|         511|   -5.916804|  7.0899e-02|           6|   -1.106499|           2|   -1.526682|
|         512|   -5.930027|  7.0900e-02|           6|   -1.095893|           2|   -1.529259|
|         513|   -5.943026|  7.0901e-02|           6|   -1.087171|           2|   -1.531860|
|         514|   -5.955813|  7.0902e-02|           6|   -1.080155|           2|   -1.534161|
|         515|   -5.968404|  7.0903e-02|           6|   -1.074556|           2|   -1.535847|
|         516|   -5.980819|  7.0904e-02|           6|   -1.070006|           2|   -1.536621|
|         517|   -5.993087|  7.0905e-02|           6|   -1.066091|           2|   -1.536226|
|         518|   -6.005236|  7.0905e-02|           6|   -1.062379|           2|   -1.534459|
|         519|   -6.017300|  7.0906e-02|           6|   -1.058446|           2|   -1.531195|
|         520|   -6.029315|  7.0906e-02|           6|   -1.053892|           2|   -1.526421|
|         521|   -6.041315|  7.0907e-02|           6|   -1.048350|           2|   -1.520259|
|         522|   -6.053336|  7.0907e-02|           6|   -1.041483|           2|   -1.512990|
|         523|   -6.065414|  7.0907e-02|           6|   -1.032986|           2|   -1.505057|
|         524|   -6.077579|  7.0908e-02|           6|   -1.022594|           2|   -1.497048|
|         525|   -6.089856|  7.0908e-02|           6|   -1.010085|           2|   -1.489642|
|         526|   -6.102264|  7.0908e-02|           7|   -1.190376|           2|   -1.483409|
|         527|   -6.114894|  7.0908e-02|           7|   -1.170189|           2|   -1.479095|
|         528|   -6.127591|  7.0908e-02|           7|   -1.148185|           2|   -1.477098|
|         529|   -6.140408|  7.0908e-02|           7|   -1.126036|           2|   -1.477576|
|         530|   -6.153327|  7.0908e-02|           7|   -1.103171|           2|   -1.480474|
|         531|   -6.166309|  7.0908e-02|           7|   -1.079441|           2|   -1.485527|
|         532|   -6.179299|  7.0908e-02|           7|   -1.055282|           2|   -1.492324|
|         533|   -6.192231|  7.0908e-02|           7|   -1.031266|           2|   -1.500391|
|         534|   -6.205036|  7.0908e-02|           7|   -1.007962|           2|   -1.509259|
|         535|   -6.217639|  7.0908e-02|           8|   -1.222112|           2|   -1.518377|
|         536|   -6.230143|  7.0908e-02|           8|   -1.198639|           2|   -1.527616|
|         537|   -6.242120|  7.0908e-02|           8|   -1.178580|           2|   -1.536677|
|         538|   -6.253654|  7.0908e-02|           8|   -1.161558|           1|   -1.003872|
|         539|   -6.264702|  7.0908e-02|           8|   -1.147955|           1|   -1.009013|
|         540|   -6.275218|  7.0908e-02|           8|   -1.137712|           1|   -1.007305|
|         541|   -6.285150|  7.0909e-02|           8|   -1.131277|           1|   -1.006496|
|         542|   -6.294449|  7.0909e-02|           8|   -1.128765|           1|   -1.005910|
|         543|   -6.303113|  7.0909e-02|           8|   -1.129980|           1|   -1.004764|
|         544|   -6.311162|  7.0909e-02|           8|   -1.134506|           1|   -1.002811|
|         545|   -6.318638|  7.0910e-02|           8|   -1.141781|           2|   -1.585602|
|         546|   -6.325595|  7.0910e-02|           8|   -1.150987|           1|   -1.013835|
|         547|   -6.332095|  7.0911e-02|           8|   -1.161972|           1|   -1.006679|
|         548|   -6.338223|  7.0911e-02|           8|   -1.173664|           2|   -1.580594|
|         549|   -6.344077|  7.0911e-02|           8|   -1.185522|           1|   -1.007266|
|         550|   -6.349728|  7.0912e-02|           7|   -1.004101|           2|   -1.578535|
|         551|   -6.354929|  7.0913e-02|           7|   -1.016255|           1|   -1.004092|
|         552|   -6.360398|  7.0913e-02|           7|   -1.039326|           2|   -1.577715|
|         553|   -6.194339|  7.0913e-02|           5|   -1.017321|           1|   -1.001013|
|         554|   -6.273596|  7.0914e-02|           6|   -1.114303|           2|   -1.578943|
|         555|   -6.340567|  7.0915e-02|           7|   -1.194598|           2|   -1.561799|
|         556|   -6.377248|  7.0916e-02|           7|   -1.089802|           2|   -1.554456|
|         557|   -6.387133|  7.0916e-02|           7|   -1.077354|           1|   -1.001921|
|         558|   -6.395346|  7.0917e-02|           7|   -1.074011|           1|   -1.000416|
|         559|   -6.402441|  7.0917e-02|           7|   -1.076590|           2|   -1.593141|
|         560|   -6.409945|  7.0918e-02|           7|   -1.078177|           1|   -1.005342|
|         561|   -6.417566|  7.0918e-02|           7|   -1.079912|           1|   -1.003050|
|         562|   -6.425462|  7.0919e-02|           7|   -1.080837|           2|   -1.606191|
|         563|   -6.433660|  7.0920e-02|           7|   -1.080896|           1|   -1.015563|
|         564|   -6.442132|  7.0920e-02|           7|   -1.080193|           1|   -1.014531|
|         565|   -6.450843|  7.0921e-02|           7|   -1.078941|           1|   -1.012775|
|         566|   -6.459749|  7.0921e-02|           7|   -1.077317|           1|   -1.012927|
|         567|   -6.468782|  7.0922e-02|           7|   -1.075460|           1|   -1.014475|
|         568|   -6.477893|  7.0923e-02|           7|   -1.073477|           1|   -1.016837|
|         569|   -6.487048|  7.0923e-02|           7|   -1.071440|           1|   -1.019592|
|         570|   -6.496229|  7.0924e-02|           7|   -1.069401|           1|   -1.022474|
|         571|   -6.505425|  7.0925e-02|           7|   -1.067404|           1|   -1.025317|
|         572|   -6.514621|  7.0925e-02|           7|   -1.065496|           1|   -1.028004|
|         573|   -6.523798|  7.0926e-02|           7|   -1.063732|           1|   -1.030445|
|         574|   -6.532933|  7.0926e-02|           7|   -1.062172|           1|   -1.032569|
|         575|   -6.542003|  7.0927e-02|           7|   -1.060871|           1|   -1.034330|
|         576|   -6.550987|  7.0928e-02|           7|   -1.059874|           1|   -1.035706|
|         577|   -6.559871|  7.0928e-02|           7|   -1.059205|           1|   -1.036700|
|         578|   -6.568646|  7.0929e-02|           7|   -1.058876|           1|   -1.037340|
|         579|   -6.577310|  7.0929e-02|           7|   -1.058884|           1|   -1.037667|
|         580|   -6.585863|  7.0930e-02|           7|   -1.059219|           1|   -1.037743|
|         581|   -6.594310|  7.0931e-02|           7|   -1.059864|           1|   -1.037633|
|         582|   -6.602655|  7.0931e-02|           7|   -1.060798|           1|   -1.037415|
|         583|   -6.610905|  7.0932e-02|           7|   -1.061994|           1|   -1.037166|
|         584|   -6.619068|  7.0932e-02|           7|   -1.063422|           1|   -1.036962|
|         585|   -6.627156|  7.0933e-02|           7|   -1.065049|           1|   -1.036876|
|         586|   -6.635178|  7.0934e-02|           7|   -1.066837|           1|   -1.036971|
|         587|   -6.643146|  7.0934e-02|           7|   -1.068749|           1|   -1.037301|
|         588|   -6.651072|  7.0935e-02|           7|   -1.070748|           1|   -1.037907|
|         589|   -6.658966|  7.0935e-02|           7|   -1.072798|           1|   -1.038816|
|         590|   -6.666839|  7.0936e-02|           7|   -1.074867|           1|   -1.040041|
|         591|   -6.674698|  7.0936e-02|           7|   -1.076928|           1|   -1.041585|
|         592|   -6.682549|  7.0937e-02|           7|   -1.078957|           1|   -1.043437|
|         593|   -6.690393|  7.0937e-02|           7|   -1.080938|           1|   -1.045581|
|         594|   -6.698232|  7.0938e-02|           7|   -1.082860|           1|   -1.047992|
|         595|   -6.706061|  7.0938e-02|           7|   -1.084720|           1|   -1.050644|
|         596|   -6.713873|  7.0939e-02|           7|   -1.086521|           1|   -1.053506|
|         597|   -6.721660|  7.0939e-02|           7|   -1.088271|           1|   -1.056552|
|         598|   -6.729410|  7.0940e-02|           7|   -1.089983|           1|   -1.059755|
|         599|   -6.737109|  7.0940e-02|           7|   -1.091678|           1|   -1.063095|
|         600|   -6.744744|  7.0941e-02|           7|   -1.093374|           1|   -1.066554|
|         601|   -6.752298|  7.0941e-02|           7|   -1.095096|           1|   -1.070122|
|         602|   -6.759758|  7.0942e-02|           7|   -1.096864|           1|   -1.073795|
|         603|   -6.767110|  7.0942e-02|           7|   -1.098701|           1|   -1.077573|
|         604|   -6.774343|  7.0943e-02|           7|   -1.100623|           1|   -1.081464|
|         605|   -6.781446|  7.0943e-02|           7|   -1.102646|           1|   -1.085479|
|         606|   -6.788413|  7.0944e-02|           7|   -1.104779|           1|   -1.089635|
|         607|   -6.795236|  7.0944e-02|           7|   -1.107026|           1|   -1.093950|
|         608|   -6.801913|  7.0945e-02|           7|   -1.109389|           1|   -1.098446|
|         609|   -6.808443|  7.0945e-02|           7|   -1.111861|           1|   -1.103141|
|         610|   -6.814826|  7.0946e-02|           7|   -1.114433|           1|   -1.108057|
|         611|   -6.821064|  7.0946e-02|           7|   -1.117092|           1|   -1.113208|
|         612|   -6.827160|  7.0946e-02|           7|   -1.119822|           1|   -1.118608|
|         613|   -6.833119|  7.0947e-02|           7|   -1.122603|           1|   -1.124263|
|         614|   -6.838944|  7.0947e-02|           7|   -1.125417|           1|   -1.130178|
|         615|   -6.844642|  7.0948e-02|           7|   -1.128244|           1|   -1.136349|
|         616|   -6.850215|  7.0948e-02|           7|   -1.131067|           1|   -1.142767|
|         617|   -6.855670|  7.0949e-02|           7|   -1.133869|           1|   -1.149422|
|         618|   -6.861010|  7.0949e-02|           7|   -1.136637|           1|   -1.156295|
|         619|   -6.866239|  7.0949e-02|           7|   -1.139360|           1|   -1.163367|
|         620|   -6.871360|  7.0950e-02|           7|   -1.142032|           1|   -1.170617|
|         621|   -6.876375|  7.0950e-02|           7|   -1.144649|           1|   -1.178019|
|         622|   -6.881287|  7.0950e-02|           7|   -1.147212|           1|   -1.185551|
|         623|   -6.886098|  7.0951e-02|           7|   -1.149723|           1|   -1.193186|
|         624|   -6.890809|  7.0951e-02|           7|   -1.152188|           1|   -1.200898|
|         625|   -6.895421|  7.0952e-02|           7|   -1.154616|           1|   -1.208663|
|         626|   -6.899936|  7.0952e-02|           7|   -1.157014|           1|   -1.216455|
|         627|   -6.904356|  7.0952e-02|           7|   -1.159394|           1|   -1.224245|
|         628|   -6.908680|  7.0953e-02|           7|   -1.161765|           1|   -1.232008|
|         629|   -6.912911|  7.0953e-02|           7|   -1.164138|           1|   -1.239714|
|         630|   -6.917051|  7.0953e-02|           7|   -1.166523|           1|   -1.247332|
|         631|   -6.921100|  7.0954e-02|           7|   -1.168928|           1|   -1.254829|
|         632|   -6.925061|  7.0954e-02|           7|   -1.171361|           1|   -1.262170|
|         633|   -6.928937|  7.0954e-02|           7|   -1.173830|           1|   -1.269315|
|         634|   -6.932728|  7.0955e-02|           7|   -1.176339|           1|   -1.276222|
|         635|   -6.936437|  7.0955e-02|           7|   -1.178892|           1|   -1.282848|
|         636|   -6.940067|  7.0955e-02|           7|   -1.181494|           1|   -1.289144|
|         637|   -6.943619|  7.0956e-02|           7|   -1.184146|           1|   -1.295061|
|         638|   -6.947095|  7.0956e-02|           7|   -1.186850|           1|   -1.300548|
|         639|   -6.950497|  7.0956e-02|           7|   -1.189608|           1|   -1.305554|
|         640|   -6.953827|  7.0956e-02|           7|   -1.192420|           1|   -1.310028|
|         641|   -6.957087|  7.0957e-02|           7|   -1.195286|           1|   -1.313921|
|         642|   -6.960279|  7.0957e-02|           7|   -1.198208|           1|   -1.317187|
|         643|   -6.963403|  7.0957e-02|           7|   -1.201185|           1|   -1.319786|
|         644|   -6.966461|  7.0958e-02|           7|   -1.204220|           1|   -1.321682|
|         645|   -6.969455|  7.0958e-02|           7|   -1.207312|           1|   -1.322849|
|         646|   -6.972386|  7.0958e-02|           7|   -1.210464|           1|   -1.323265|
|         647|   -6.975254|  7.0959e-02|           7|   -1.213675|           1|   -1.322922|
|         648|   -6.978062|  7.0959e-02|           7|   -1.216947|           1|   -1.321816|
|         649|   -6.980811|  7.0959e-02|           7|   -1.220282|           1|   -1.319956|
|         650|   -6.983501|  7.0959e-02|           7|   -1.223681|           1|   -1.317360|
|         651|   -6.986134|  7.0960e-02|           7|   -1.227145|           1|   -1.314053|
|         652|   -6.988712|  7.0960e-02|           7|   -1.230674|           1|   -1.310068|
|         653|   -6.991236|  7.0960e-02|           7|   -1.234268|           1|   -1.305446|
|         654|   -6.993708|  7.0961e-02|           7|   -1.237929|           1|   -1.300233|
|         655|   -6.996128|  7.0961e-02|           7|   -1.241657|           1|   -1.294481|
|         656|   -6.998500|  7.0961e-02|           7|   -1.245449|           1|   -1.288244|
|         657|   -7.000823|  7.0961e-02|           7|   -1.249307|           1|   -1.281578|
|         658|   -7.003101|  7.0962e-02|           7|   -1.253230|           1|   -1.274543|
|         659|   -7.005333|  7.0962e-02|           7|   -1.257216|           1|   -1.267196|
|         660|   -7.007523|  7.0962e-02|           7|   -1.261264|           1|   -1.259596|
|         661|   -7.009672|  7.0962e-02|           7|   -1.265374|           1|   -1.251800|
|         662|   -7.011781|  7.0963e-02|           7|   -1.269545|           1|   -1.243863|
|         663|   -7.013852|  7.0963e-02|           6|   -1.001819|           1|   -1.236132|
|         664|   -7.015764|  7.0963e-02|           6|   -1.005821|           1|   -1.228347|
|         665|   -7.017736|  7.0963e-02|           6|   -1.011564|           1|   -1.220466|
|         666|   -7.019731|  7.0964e-02|           6|   -1.014912|           1|   -1.212622|
|         667|   -7.021679|  7.0964e-02|           6|   -1.018312|           1|   -1.204823|
|         668|   -7.023579|  7.0964e-02|           6|   -1.022075|           1|   -1.197067|
|         669|   -7.025447|  7.0965e-02|           6|   -1.025843|           1|   -1.189384|
|         670|   -7.027288|  7.0965e-02|           6|   -1.029605|           1|   -1.181815|
|         671|   -7.029103|  7.0965e-02|           6|   -1.033486|           1|   -1.174405|
|         672|   -7.030891|  7.0965e-02|           6|   -1.037524|           1|   -1.167195|
|         673|   -7.032654|  7.0966e-02|           6|   -1.041683|           1|   -1.160231|
|         674|   -7.034393|  7.0966e-02|           6|   -1.045929|           1|   -1.153552|
|         675|   -7.036109|  7.0966e-02|           6|   -1.050249|           1|   -1.147193|
|         676|   -7.037803|  7.0966e-02|           6|   -1.054650|           1|   -1.141181|
|         677|   -7.039474|  7.0966e-02|           6|   -1.059156|           1|   -1.135535|
|         678|   -7.041124|  7.0967e-02|           6|   -1.063789|           1|   -1.130267|
|         679|   -7.042753|  7.0967e-02|           6|   -1.068573|           1|   -1.125383|
|         680|   -7.044363|  7.0967e-02|           6|   -1.073519|           1|   -1.120881|
|         681|   -7.045953|  7.0967e-02|           6|   -1.078633|           1|   -1.116753|
|         682|   -7.047524|  7.0968e-02|           6|   -1.083910|           1|   -1.112987|
|         683|   -7.049078|  7.0968e-02|           6|   -1.089340|           1|   -1.109565|
|         684|   -7.050615|  7.0968e-02|           6|   -1.094907|           1|   -1.106468|
|         685|   -7.052135|  7.0968e-02|           6|   -1.100595|           1|   -1.103671|
|         686|   -7.053639|  7.0969e-02|           6|   -1.106387|           1|   -1.101151|
|         687|   -7.055128|  7.0969e-02|           6|   -1.112269|           1|   -1.098882|
|         688|   -7.056602|  7.0969e-02|           6|   -1.118229|           1|   -1.096838|
|         689|   -7.058062|  7.0969e-02|           6|   -1.124259|           1|   -1.094995|
|         690|   -7.059508|  7.0969e-02|           6|   -1.130355|           1|   -1.093327|
|         691|   -7.060941|  7.0970e-02|           6|   -1.136513|           1|   -1.091813|
|         692|   -7.062361|  7.0970e-02|           6|   -1.142733|           1|   -1.090429|
|         693|   -7.063769|  7.0970e-02|           6|   -1.149011|           1|   -1.089155|
|         694|   -7.065165|  7.0970e-02|           6|   -1.155347|           1|   -1.087975|
|         695|   -7.066550|  7.0971e-02|           6|   -1.161737|           1|   -1.086871|
|         696|   -7.067924|  7.0971e-02|           6|   -1.168178|           1|   -1.085829|
|         697|   -7.069287|  7.0971e-02|           6|   -1.174667|           1|   -1.084836|
|         698|   -7.070640|  7.0971e-02|           6|   -1.181197|           1|   -1.083882|
|         699|   -7.071984|  7.0971e-02|           6|   -1.187765|           1|   -1.082956|
|         700|   -7.073318|  7.0972e-02|           6|   -1.194366|           1|   -1.082049|
|         701|   -7.074643|  7.0972e-02|           6|   -1.200992|           1|   -1.081153|
|         702|   -7.075960|  7.0972e-02|           6|   -1.207640|           1|   -1.080260|
|         703|   -7.077268|  7.0972e-02|           5|   -1.005265|           1|   -1.080369|
|         704|   -7.078572|  7.0972e-02|           5|   -1.016396|           1|   -1.079590|
|         705|   -7.079842|  7.0973e-02|           5|   -1.023889|           1|   -1.078747|
|         706|   -7.081131|  7.0973e-02|           5|   -1.027557|           1|   -1.077995|
|         707|   -7.082420|  7.0973e-02|           5|   -1.031879|           1|   -1.077141|
|         708|   -7.083698|  7.0973e-02|           5|   -1.037054|           1|   -1.076121|
|         709|   -7.084967|  7.0973e-02|           5|   -1.042337|           1|   -1.074957|
|         710|   -7.086228|  7.0974e-02|           5|   -1.047537|           1|   -1.073661|
|         711|   -7.087482|  7.0974e-02|           5|   -1.052765|           1|   -1.072242|
|         712|   -7.088730|  7.0974e-02|           5|   -1.058130|           1|   -1.070723|
|         713|   -7.089973|  7.0974e-02|           5|   -1.063684|           1|   -1.069134|
|         714|   -7.091212|  7.0974e-02|           5|   -1.069434|           1|   -1.067508|
|         715|   -7.092445|  7.0975e-02|           5|   -1.075360|           1|   -1.065877|
|         716|   -7.093674|  7.0975e-02|           5|   -1.081425|           1|   -1.064272|
|         717|   -7.094899|  7.0975e-02|           5|   -1.087593|           1|   -1.062725|
|         718|   -7.096120|  7.0975e-02|           5|   -1.093830|           1|   -1.061262|
|         719|   -7.097336|  7.0975e-02|           5|   -1.100102|           1|   -1.059908|
|         720|   -7.098549|  7.0976e-02|           5|   -1.106379|           1|   -1.058684|
|         721|   -7.099758|  7.0976e-02|           5|   -1.112635|           1|   -1.057602|
[...]
|        4727|  -11.762212|  7.0998e-02|           3|   -1.165473|           2|   -1.498273|
|        4728|  -11.763431|  7.0998e-02|           3|   -1.167109|           2|   -1.498356|
|        4729|  -11.764647|  7.0998e-02|           3|   -1.161576|           2|   -1.497999|
|        4730|  -11.765863|  7.0998e-02|           3|   -1.166521|           2|   -1.498202|
|        4731|  -11.767079|  7.0998e-02|           3|   -1.166894|           2|   -1.498150|
|        4732|  -11.768294|  7.0998e-02|           3|   -1.167995|           2|   -1.497820|
|        4733|  -11.769510|  7.0998e-02|           3|   -1.166328|           2|   -1.497693|
|        4734|  -11.770737|  7.0998e-02|           3|   -1.164268|           2|   -1.497855|
|        4735|  -11.771940|  7.0998e-02|           3|   -1.167222|           2|   -1.497673|
|        4736|  -11.773148|  7.0998e-02|           3|   -1.166525|           2|   -1.497748|
|        4737|  -11.774380|  7.0998e-02|           3|   -1.164923|           2|   -1.497897|
|        4738|  -11.775591|  7.0998e-02|           3|   -1.165089|           2|   -1.497700|
|        4739|  -11.776802|  7.0998e-02|           3|   -1.166571|           2|   -1.497603|
|        4740|  -11.778024|  7.0998e-02|           3|   -1.166553|           2|   -1.497776|
|        4741|  -11.779237|  7.0998e-02|           3|   -1.166382|           2|   -1.497800|
|        4742|  -11.780454|  7.0998e-02|           3|   -1.165809|           2|   -1.497643|
|        4743|  -11.781668|  7.0998e-02|           3|   -1.165760|           2|   -1.497512|
|        4744|  -11.782879|  7.0998e-02|           3|   -1.165351|           2|   -1.497559|
|        4745|  -11.784100|  7.0998e-02|           3|   -1.165153|           2|   -1.497672|
|        4746|  -11.785321|  7.0998e-02|           3|   -1.164871|           2|   -1.497724|
|        4747|  -11.786529|  7.0998e-02|           3|   -1.167894|           2|   -1.497893|
|        4748|  -11.787746|  7.0998e-02|           3|   -1.166884|           2|   -1.497793|
|        4749|  -11.788966|  7.0998e-02|           3|   -1.164754|           2|   -1.497739|
|        4750|  -11.790176|  7.0998e-02|           3|   -1.168879|           2|   -1.497663|
|        4751|  -11.791394|  7.0998e-02|           3|   -1.167646|           2|   -1.497731|
|        4752|  -11.792616|  7.0998e-02|           3|   -1.166477|           2|   -1.497722|
|        4753|  -11.793827|  7.0998e-02|           3|   -1.167397|           2|   -1.497632|
|        4754|  -11.795041|  7.0998e-02|           3|   -1.164975|           2|   -1.497734|
|        4755|  -11.796256|  7.0998e-02|           3|   -1.167821|           2|   -1.497941|
|        4756|  -11.797473|  7.0998e-02|           3|   -1.167687|           2|   -1.497801|
|        4757|  -11.798686|  7.0998e-02|           3|   -1.168827|           2|   -1.497667|
|        4758|  -11.799905|  7.0998e-02|           3|   -1.171100|           2|   -1.497665|
|        4759|  -11.801117|  7.0998e-02|           3|   -1.168271|           2|   -1.497801|
|        4760|  -11.802339|  7.0998e-02|           3|   -1.169371|           2|   -1.498119|
|        4761|  -11.803553|  7.0998e-02|           3|   -1.169327|           2|   -1.497791|
|        4762|  -11.804762|  7.0998e-02|           3|   -1.167375|           2|   -1.497604|
|        4763|  -11.805983|  7.0998e-02|           3|   -1.169717|           2|   -1.497895|
|        4764|  -11.807196|  7.0998e-02|           3|   -1.169789|           2|   -1.498030|
|        4765|  -11.808410|  7.0998e-02|           3|   -1.169343|           2|   -1.497727|
|        4766|  -11.809630|  7.0998e-02|           3|   -1.166557|           2|   -1.497855|
|        4767|  -11.810849|  7.0998e-02|           3|   -1.169074|           2|   -1.497801|
|        4768|  -11.812061|  7.0998e-02|           3|   -1.169028|           2|   -1.497794|
|        4769|  -11.813269|  7.0998e-02|           3|   -1.167921|           2|   -1.497703|
|        4770|  -11.814492|  7.0998e-02|           3|   -1.166213|           2|   -1.497914|
|        4771|  -11.815701|  7.0998e-02|           3|   -1.168447|           2|   -1.497879|
|        4772|  -11.816920|  7.0998e-02|           3|   -1.169899|           2|   -1.497690|
|        4773|  -11.818142|  7.0998e-02|           3|   -1.169418|           2|   -1.497908|
|        4774|  -11.819357|  7.0998e-02|           3|   -1.170651|           2|   -1.497851|
|        4775|  -11.820576|  7.0998e-02|           3|   -1.168160|           2|   -1.497743|
|        4776|  -11.821781|  7.0998e-02|           3|   -1.169228|           2|   -1.497930|
|        4777|  -11.823010|  7.0998e-02|           3|   -1.168131|           2|   -1.497659|
|        4778|  -11.824224|  7.0998e-02|           3|   -1.168232|           2|   -1.497581|
|        4779|  -11.825442|  7.0998e-02|           3|   -1.166806|           2|   -1.497662|
|        4780|  -11.826646|  7.0998e-02|           3|   -1.169281|           2|   -1.497802|
|        4781|  -11.827876|  7.0998e-02|           3|   -1.167122|           2|   -1.497577|
|        4782|  -11.829081|  7.0998e-02|           3|   -1.170126|           2|   -1.497658|
|        4783|  -11.830299|  7.0998e-02|           3|   -1.168293|           2|   -1.497805|
|        4784|  -11.831510|  7.0998e-02|           3|   -1.170035|           2|   -1.497610|
|        4785|  -11.832719|  7.0998e-02|           3|   -1.169252|           2|   -1.497535|
|        4786|  -11.833954|  7.0998e-02|           3|   -1.168087|           2|   -1.497639|
|        4787|  -11.835163|  7.0998e-02|           3|   -1.170879|           2|   -1.497846|
|        4788|  -11.836379|  7.0998e-02|           3|   -1.167246|           2|   -1.497925|
|        4789|  -11.837588|  7.0998e-02|           3|   -1.171958|           2|   -1.498193|
|        4790|  -11.838813|  7.0998e-02|           3|   -1.169857|           2|   -1.498042|
|        4791|  -11.840020|  7.0998e-02|           3|   -1.171615|           2|   -1.497811|
|        4792|  -11.841237|  7.0998e-02|           3|   -1.166993|           2|   -1.497836|
|        4793|  -11.842458|  7.0998e-02|           3|   -1.167394|           2|   -1.498070|
|        4794|  -11.843662|  7.0998e-02|           3|   -1.172185|           2|   -1.498005|
|        4795|  -11.844883|  7.0998e-02|           3|   -1.172979|           2|   -1.497727|
|        4796|  -11.846105|  7.0998e-02|           3|   -1.168342|           2|   -1.497761|
|        4797|  -11.847321|  7.0998e-02|           3|   -1.169058|           2|   -1.497827|
|        4798|  -11.848531|  7.0998e-02|           3|   -1.171186|           2|   -1.498030|
|        4799|  -11.849748|  7.0998e-02|           3|   -1.170815|           2|   -1.497926|
|        4800|  -11.850963|  7.0998e-02|           3|   -1.169712|           2|   -1.497817|
|        4801|  -11.852176|  7.0998e-02|           3|   -1.172535|           2|   -1.498001|
|        4802|  -11.853387|  7.0998e-02|           3|   -1.172046|           2|   -1.497940|
|        4803|  -11.854616|  7.0998e-02|           3|   -1.169978|           2|   -1.497822|
|        4804|  -11.855831|  7.0998e-02|           3|   -1.169157|           2|   -1.497737|
|        4805|  -11.857037|  7.0998e-02|           3|   -1.173567|           2|   -1.498071|
|        4806|  -11.858269|  7.0998e-02|           3|   -1.170084|           2|   -1.497949|
|        4807|  -11.859483|  7.0998e-02|           3|   -1.168266|           2|   -1.497756|
|        4808|  -11.860690|  7.0998e-02|           3|   -1.171992|           2|   -1.497774|
|        4809|  -11.861912|  7.0998e-02|           3|   -1.173093|           2|   -1.497981|
|        4810|  -11.863128|  7.0998e-02|           3|   -1.170952|           2|   -1.498001|
|        4811|  -11.864331|  7.0998e-02|           3|   -1.174156|           2|   -1.497851|
|        4812|  -11.865552|  7.0998e-02|           3|   -1.172821|           2|   -1.497821|
|        4813|  -11.866758|  7.0998e-02|           3|   -1.172751|           2|   -1.497872|
|        4814|  -11.867985|  7.0998e-02|           3|   -1.172010|           2|   -1.497994|
|        4815|  -11.869198|  7.0998e-02|           3|   -1.169052|           2|   -1.497869|
|        4816|  -11.870418|  7.0998e-02|           3|   -1.173668|           2|   -1.497978|
|        4817|  -11.871641|  7.0998e-02|           3|   -1.168855|           2|   -1.498020|
|        4818|  -11.872851|  7.0998e-02|           3|   -1.171850|           2|   -1.497728|
|        4819|  -11.874064|  7.0998e-02|           3|   -1.172131|           2|   -1.497569|
|        4820|  -11.875275|  7.0998e-02|           3|   -1.171190|           2|   -1.497808|
|        4821|  -11.876484|  7.0998e-02|           3|   -1.172028|           2|   -1.497768|
|        4822|  -11.877692|  7.0998e-02|           3|   -1.174893|           2|   -1.497811|
|        4823|  -11.878924|  7.0998e-02|           3|   -1.173028|           2|   -1.497626|
|        4824|  -11.880141|  7.0998e-02|           3|   -1.173742|           2|   -1.497706|
|        4825|  -11.881357|  7.0998e-02|           3|   -1.172619|           2|   -1.497721|
|        4826|  -11.882580|  7.0998e-02|           3|   -1.172720|           2|   -1.497764|
|        4827|  -11.883789|  7.0998e-02|           3|   -1.171544|           2|   -1.497759|
|        4828|  -11.885000|  7.0998e-02|           3|   -1.174284|           2|   -1.497538|
|        4829|  -11.886230|  7.0998e-02|           3|   -1.172321|           2|   -1.497538|
|        4830|  -11.887427|  7.0998e-02|           3|   -1.176729|           2|   -1.497596|
|        4831|  -11.888645|  7.0998e-02|           3|   -1.176038|           2|   -1.497668|
|        4832|  -11.889859|  7.0998e-02|           3|   -1.175468|           2|   -1.497561|
|        4833|  -11.891078|  7.0998e-02|           3|   -1.173821|           2|   -1.497911|
|        4834|  -11.892299|  7.0998e-02|           3|   -1.173610|           2|   -1.497781|
|        4835|  -11.893512|  7.0998e-02|           3|   -1.174023|           2|   -1.497805|
|        4836|  -11.894729|  7.0998e-02|           3|   -1.172686|           2|   -1.497805|
|        4837|  -11.895936|  7.0998e-02|           3|   -1.172349|           2|   -1.497773|
|        4838|  -11.897158|  7.0998e-02|           3|   -1.174810|           2|   -1.498183|
|        4839|  -11.898370|  7.0998e-02|           3|   -1.176363|           2|   -1.498047|
|        4840|  -11.899580|  7.0998e-02|           3|   -1.173749|           2|   -1.498187|
|        4841|  -11.900798|  7.0998e-02|           3|   -1.173531|           2|   -1.498163|
|        4842|  -11.902018|  7.0998e-02|           3|   -1.174612|           2|   -1.497991|
|        4843|  -11.903238|  7.0998e-02|           3|   -1.175959|           2|   -1.498104|
|        4844|  -11.904456|  7.0998e-02|           3|   -1.173830|           2|   -1.498087|
|        4845|  -11.905670|  7.0998e-02|           3|   -1.173088|           2|   -1.497894|
|        4846|  -11.906880|  7.0998e-02|           3|   -1.174042|           2|   -1.497926|
|        4847|  -11.908100|  7.0998e-02|           3|   -1.171508|           2|   -1.498240|
|        4848|  -11.909303|  7.0998e-02|           3|   -1.178039|           2|   -1.497823|
|        4849|  -11.910514|  7.0998e-02|           3|   -1.176775|           2|   -1.497629|
|        4850|  -11.911740|  7.0998e-02|           3|   -1.175483|           2|   -1.497644|
|        4851|  -11.912947|  7.0998e-02|           3|   -1.174556|           2|   -1.497569|
|        4852|  -11.914169|  7.0998e-02|           3|   -1.177151|           2|   -1.497799|
|        4853|  -11.915391|  7.0998e-02|           3|   -1.175117|           2|   -1.497403|
|        4854|  -11.916592|  7.0998e-02|           3|   -1.176287|           2|   -1.497618|
|        4855|  -11.917818|  7.0998e-02|           3|   -1.175418|           2|   -1.497484|
|        4856|  -11.919030|  7.0998e-02|           3|   -1.176785|           2|   -1.497344|
|        4857|  -11.920243|  7.0998e-02|           3|   -1.176303|           2|   -1.497412|
|        4858|  -11.921452|  7.0998e-02|           3|   -1.178509|           2|   -1.497373|
|        4859|  -11.922678|  7.0998e-02|           3|   -1.175793|           2|   -1.497194|
|        4860|  -11.923894|  7.0998e-02|           3|   -1.174650|           2|   -1.496865|
|        4861|  -11.925095|  7.0998e-02|           3|   -1.178849|           2|   -1.497357|
|        4862|  -11.926314|  7.0998e-02|           3|   -1.179091|           2|   -1.497303|
|        4863|  -11.927541|  7.0998e-02|           3|   -1.175337|           2|   -1.497411|
|        4864|  -11.928754|  7.0998e-02|           3|   -1.177769|           2|   -1.497261|
|        4865|  -11.929968|  7.0998e-02|           3|   -1.176402|           2|   -1.497723|
|        4866|  -11.931195|  7.0998e-02|           3|   -1.175944|           2|   -1.497771|
|        4867|  -11.932394|  7.0998e-02|           3|   -1.173854|           2|   -1.497712|
|        4868|  -11.933608|  7.0998e-02|           3|   -1.177610|           2|   -1.498020|
|        4869|  -11.934831|  7.0998e-02|           3|   -1.180141|           2|   -1.497851|
|        4870|  -11.936049|  7.0998e-02|           3|   -1.176374|           2|   -1.498276|
|        4871|  -11.937256|  7.0998e-02|           3|   -1.179447|           2|   -1.498467|
|        4872|  -11.938481|  7.0998e-02|           3|   -1.179720|           2|   -1.498411|
|        4873|  -11.939678|  7.0998e-02|           3|   -1.183331|           2|   -1.498197|
|        4874|  -11.940908|  7.0998e-02|           3|   -1.178634|           2|   -1.498047|
|        4875|  -11.942124|  7.0998e-02|           3|   -1.176149|           2|   -1.498115|
|        4876|  -11.943341|  7.0998e-02|           3|   -1.180205|           2|   -1.498146|
|        4877|  -11.944548|  7.0998e-02|           3|   -1.180015|           2|   -1.498034|
|        4878|  -11.945753|  7.0998e-02|           3|   -1.182401|           2|   -1.497755|
|        4879|  -11.946987|  7.0998e-02|           3|   -1.174792|           2|   -1.497644|
|        4880|  -11.948196|  7.0998e-02|           3|   -1.180247|           2|   -1.497907|
|        4881|  -11.949409|  7.0998e-02|           3|   -1.180723|           2|   -1.497915|
|        4882|  -11.950632|  7.0998e-02|           3|   -1.181086|           2|   -1.498037|
|        4883|  -11.951833|  7.0998e-02|           3|   -1.176509|           2|   -1.497927|
|        4884|  -11.953071|  7.0998e-02|           3|   -1.175243|           2|   -1.497954|
|        4885|  -11.954269|  7.0998e-02|           3|   -1.176249|           2|   -1.498326|
|        4886|  -11.955488|  7.0998e-02|           3|   -1.181485|           2|   -1.498096|
|        4887|  -11.956707|  7.0998e-02|           3|   -1.177910|           2|   -1.498400|
|        4888|  -11.957917|  7.0998e-02|           3|   -1.183362|           2|   -1.498761|
|        4889|  -11.959128|  7.0998e-02|           3|   -1.183467|           2|   -1.498228|
|        4890|  -11.960343|  7.0998e-02|           3|   -1.181055|           2|   -1.498423|
|        4891|  -11.961565|  7.0998e-02|           3|   -1.180267|           2|   -1.498352|
|        4892|  -11.962783|  7.0998e-02|           3|   -1.177958|           2|   -1.498266|
|        4893|  -11.963998|  7.0998e-02|           3|   -1.178544|           2|   -1.498462|
|        4894|  -11.965213|  7.0998e-02|           3|   -1.178948|           2|   -1.498579|
|        4895|  -11.966418|  7.0998e-02|           3|   -1.183108|           2|   -1.498323|
|        4896|  -11.967643|  7.0998e-02|           3|   -1.180083|           2|   -1.498222|
|        4897|  -11.968861|  7.0998e-02|           3|   -1.177112|           2|   -1.498353|
|        4898|  -11.970077|  7.0998e-02|           3|   -1.183795|           2|   -1.498272|
|        4899|  -11.971280|  7.0998e-02|           3|   -1.181869|           2|   -1.498299|
|        4900|  -11.972501|  7.0998e-02|           3|   -1.181170|           2|   -1.498445|
|        4901|  -11.973708|  7.0998e-02|           3|   -1.181523|           2|   -1.498116|
|        4902|  -11.974928|  7.0998e-02|           3|   -1.179469|           2|   -1.498119|
|        4903|  -11.976135|  7.0998e-02|           3|   -1.182634|           2|   -1.498410|
|        4904|  -11.977370|  7.0998e-02|           3|   -1.180616|           2|   -1.498315|
|        4905|  -11.978559|  7.0998e-02|           3|   -1.183387|           2|   -1.497953|
|        4906|  -11.979788|  7.0998e-02|           3|   -1.183701|           2|   -1.498289|
|        4907|  -11.981023|  7.0998e-02|           3|   -1.181509|           2|   -1.498236|
|        4908|  -11.982225|  7.0998e-02|           3|   -1.182649|           2|   -1.498064|
|        4909|  -11.983434|  7.0998e-02|           3|   -1.186139|           2|   -1.497915|
|        4910|  -11.984655|  7.0998e-02|           3|   -1.185163|           2|   -1.497789|
|        4911|  -11.985858|  7.0998e-02|           3|   -1.186898|           2|   -1.497652|
|        4912|  -11.987084|  7.0998e-02|           3|   -1.175887|           2|   -1.497754|
|        4913|  -11.988288|  7.0998e-02|           3|   -1.184527|           2|   -1.497736|
|        4914|  -11.989501|  7.0998e-02|           3|   -1.185476|           2|   -1.497691|
|        4915|  -11.990719|  7.0998e-02|           3|   -1.183788|           2|   -1.497594|
|        4916|  -11.991944|  7.0998e-02|           3|   -1.181726|           2|   -1.497247|
|        4917|  -11.993147|  7.0998e-02|           3|   -1.182622|           2|   -1.497408|
|        4918|  -11.994365|  7.0998e-02|           3|   -1.181035|           2|   -1.496882|
|        4919|  -11.995601|  7.0998e-02|           3|   -1.181472|           2|   -1.496994|
|        4920|  -11.996804|  7.0998e-02|           3|   -1.182620|           2|   -1.496974|
|        4921|  -11.998000|  7.0998e-02|           3|   -1.184580|           2|   -1.497148|
|        4922|  -11.999210|  7.0998e-02|           3|   -1.183196|           2|   -1.497067|
|        4923|  -12.000436|  7.0998e-02|           3|   -1.187047|           2|   -1.497331|

----------------------------- Solver Exit -------------------------------
All convergence criteria satisfied.
+-----------------------------------------------------------------------+
|      Convergence Field     |     Value    |   Criterion  |  Converged |
+-----------------------------------------------------------------------+
|                    rms[Rho]|      -12.0004|         < -12|         Yes|
+-----------------------------------------------------------------------+
-------------------------------------------------------------------------
+-----------------------------------------------------------------------+
|        File Writing Summary       |              Filename             |
+-----------------------------------------------------------------------+
|SU2 binary restart                 |restart_flow.dat                   |
|Paraview                           |flow.vtu                           |
|Paraview surface                   |surface_flow.vtu                   |
+-----------------------------------------------------------------------+

------------------------- Solver Postprocessing -------------------------
Deleted CNumerics container.
Deleted CIntegration container.
Deleted CSolver container.
Deleted CIteration container.
Deleted CInterface container.
Deleted CGeometry container.
Deleted CFreeFormDefBox class.
Deleted CSurfaceMovement class.
Deleted CVolumetricMovement class.
Deleted CConfig container.
Deleted nInst container.
Deleted COutput class.
-------------------------------------------------------------------------

------------------------- Exit Success (SU2_CFD) ------------------------

