/*---------------------------------------------------------------------------*\
| =========                 |                                                 |
| \\      /  F ield         | OpenFOAM: The Open Source CFD Toolbox           |
|  \\    /   O peration     | Version:  2212                                  |
|   \\  /    A nd           | Website:  www.openfoam.com                      |
|    \\/     M anipulation  |                                                 |
\*---------------------------------------------------------------------------*/
Build  : _66908158ae-20221220 OPENFOAM=2212 version=v2212
Arch   : "LSB;label=32;scalar=64"
Exec   : renumberMesh -parallel -overwrite
Date   : Jan 25 2023
Time   : 21:18:27
Host   : HomeServer
PID    : 258017
I/O    : uncollated
Case   : /home/jcshi/OpenFOAM_Project/cases/airFoil2D
nProcs : 6
Hosts  :
(
    (HomeServer 6)
)
Pstream initialized with:
    floatTransfer      : 0
    nProcsSimpleSum    : 0
    commsType          : nonBlocking
    polling iterations : 0
trapFpe: Floating point exception trapping enabled (FOAM_SIGFPE).
fileModificationChecking : Monitoring run-time modified files using timeStampMaster (fileModificationSkew 5, maxFileModificationPolls 20)
allowSystemOperations : Allowing user-supplied system call operations

// * * * * * * * * * * * * * * * * * * * * * * * * * * * * * * * * * * * * * //
Create time

Create mesh for time = 0

Mesh region0 size: 10720
Before renumbering :
    band           : 1372
    profile        : 527218

Using default renumberMethod.

Selecting renumberMethod CuthillMcKee

Reading volScalarField: nuTilda nut p
Reading volVectorField: U
Reading faceSet: upperTriangularFace

Renumbering processor cell decomposition map cellProcAddressing
Renumbering processor face decomposition map faceProcAddressing
Renumbering processor point decomposition map pointProcAddressing
After renumbering :
    band           : 30
    profile        : 222968

Writing mesh to "constant"
End

Finalising parallel run
