
-------------------------------------------------------------------------
|    ___ _   _ ___                                                      |
|   / __| | | |_  )   Release 7.5.0 "Blackbird"                         |
|   \__ \ |_| |/ /                                                      |
|   |___/\___//___|   Suite (Computational Fluid Dynamics Code)         |
|                                                                       |
-------------------------------------------------------------------------
| SU2 Project Website: https://su2code.github.io                        |
|                                                                       |
| The SU2 Project is maintained by the SU2 Foundation                   |
| (http://su2foundation.org)                                            |
-------------------------------------------------------------------------
| Copyright 2012-2022, SU2 Contributors                                 |
|                                                                       |
| SU2 is free software; you can redistribute it and/or                  |
| modify it under the terms of the GNU Lesser General Public            |
| License as published by the Free Software Foundation; either          |
| version 2.1 of the License, or (at your option) any later version.    |
|                                                                       |
| SU2 is distributed in the hope that it will be useful,                |
| but WITHOUT ANY WARRANTY; without even the implied warranty of        |
| MERCHANTABILITY or FITNESS FOR A PARTICULAR PURPOSE. See the GNU      |
| Lesser General Public License for more details.                       |
|                                                                       |
| You should have received a copy of the GNU Lesser General Public      |
| License along with SU2. If not, see <http://www.gnu.org/licenses/>.   |
-------------------------------------------------------------------------

Parsing config file for zone 0

----------------- Physical Case Definition ( Zone 0 ) -------------------
Compressible RANS equations.
Turbulence model: Negative-Spalart-Allmaras-noft2
Hybrid RANS/LES: No Hybrid RANS/LES
Mach number: 0.15.
Angle of attack (AoA): 10 deg, and angle of sideslip (AoS): 0 deg.
Reynolds number: 6e+06. Reference length 1.
No restart solution, use the values at infinity (freestream).
Non-Dimensional simulation (V=Mach, Rho=1.0, T=1.0 at the farfield).
The reference area is 1 m^2.
The semi-span will be computed using the max y(3D) value.
The reference length is 1 m.
Reference origin for moment evaluation is (0.25, 0, 0).
Surface(s) where the force coefficients are evaluated: walls.

Surface(s) plotted in the output file: walls.
Input mesh file name: mesh/naca0012_from_openfoam.su2

--------------- Space Numerical Integration ( Zone 0 ) ------------------
Roe (with entropy fix = 0.001) solver for the flow inviscid terms.
Standard Roe without low-dissipation function.
Second order integration in space, with slope limiter.
No slope-limiting method. 
Scalar upwind solver for the turbulence model.
Second order integration in space, with slope limiter.
No slope-limiting method. 
Average of gradients with correction (viscous flow terms).
Average of gradients with correction (viscous turbulence terms).
Gradient for upwind reconstruction: unweighted Least-Squares.
Gradient for viscous and source terms: inverse-distance weighted Least-Squares.

--------------- Time Numerical Integration  ( Zone 0 ) ------------------
Local time stepping (steady state simulation).
Euler implicit method for the flow equations.
FGMRES is used for solving the linear system.
Using a ILU(0) preconditioning.
Convergence criteria of the linear solver: 0.1.
Max number of linear iterations: 1000.
No CFL adaptation.
Courant-Friedrichs-Lewy number:      100
Euler implicit time integration for the turbulence model.

------------------ Convergence Criteria  ( Zone 0 ) ---------------------
Maximum number of solver subiterations: 5000.
Begin convergence monitoring at iteration 10.
Residual minimum value: 1e-12.
Cauchy series min. value: 1e-06.
Number of Cauchy elements: 100.
Begin windowed time average at iteration 0.

-------------------- Output Information ( Zone 0 ) ----------------------
File writing frequency: 
+------------------------------------+
|                     File| Frequency|
+------------------------------------+
|                  RESTART|     10000|
|                 PARAVIEW|     10000|
|         SURFACE_PARAVIEW|     10000|
+------------------------------------+
Writing the convergence history file every 1 inner iterations.
Writing the screen convergence history every 1 inner iterations.
The tabular file format is CSV (.csv).
Convergence history file name: history.
Forces breakdown file name: forces_breakdown.dat.
Surface file name: surface_flow.
Volume file name: flow.
Restart file name: restart_flow.dat.

------------- Config File Boundary Information ( Zone 0 ) ---------------
+-----------------------------------------------------------------------+
|                        Marker Type|                        Marker Name|
+-----------------------------------------------------------------------+
|                          Far-field|                              inlet|
|                                   |                             outlet|
+-----------------------------------------------------------------------+
|                     Heat flux wall|                              walls|
+-----------------------------------------------------------------------+

-------------------- Output Preprocessing ( Zone 0 ) --------------------

WARNING: SURFACE_PRESSURE_DROP can only be computed for at least 2 surfaces (outlet, inlet, ...)

Screen output fields: INNER_ITER, RMS_DENSITY, DRAG, LINSOL_ITER, LINSOL_RESIDUAL, LINSOL_ITER_TURB, LINSOL_RESIDUAL_TURB
History output group(s): INNER_ITER, RMS_DENSITY, RMS_MOMENTUM-X, RMS_MOMENTUM-Y, RMS_ENERGY, RMS_NU_TILDE, LIFT, DRAG, WALL_TIME
Convergence field(s): RMS_DENSITY
Warning: No (valid) fields chosen for time convergence monitoring. Time convergence monitoring inactive.
Volume output fields: COORDINATES, SOLUTION, PRIMITIVE

------------------- Geometry Preprocessing ( Zone 0 ) -------------------
Two dimensional problem.
10906 grid points before partitioning.
10720 volume elements before partitioning.
3 surface markers.
134 boundary elements in index 0 (Marker = inlet).
160 boundary elements in index 1 (Marker = outlet).
78 boundary elements in index 2 (Marker = walls).
Executing the partitioning functions.
Building the graph adjacency structure.
Calling ParMETIS... graph partitioning complete (426 edge cuts).
Distributing ParMETIS coloring.
Rebalancing vertices.
Rebalancing volume element connectivity.
Rebalancing markers and surface elements.
11770 vertices including ghost points. 
11146 interior elements including halo cells. 
11146 quadrilaterals.
Establishing MPI communication patterns.
Setting point connectivity.
Renumbering points (Reverse Cuthill McKee Ordering).
Recomputing point connectivity.
Setting element connectivity.
Checking the numerical grid orientation.
There has been a re-orientation of 5645 QUADRILATERAL volume elements.
There has been a re-orientation of 81 LINE surface elements.
Identifying edges and vertices.
Setting the control volume structure.
Area of the computational grid: 176.903.
Searching for the closest normal neighbors to the surfaces.
Storing a mapping from global to local point index.
Compute the surface curvature.
Max K: 38.4671. Mean K: 1.68349. Standard deviation K: 5.64091.
Checking for periodicity.
Computing mesh quality statistics for the dual control volumes.
+--------------------------------------------------------------+
|           Mesh Quality Metric|        Minimum|        Maximum|
+--------------------------------------------------------------+
|    Orthogonality Angle (deg.)|        48.0185|        89.9992|
|     CV Face Area Aspect Ratio|        1.00028|        95.9769|
|           CV Sub-Volume Ratio|        1.00911|        2.30138|
+--------------------------------------------------------------+
Finding max control volume width.
Communicating number of neighbors.
Wetted area = 1.99895 m.
Area projection in the x-plane = 0.179909 m, y-plane = 0.952748 m.
Max. coordinate in the x-direction = 1 m, y-direction = 0.105509 m.
Min. coordinate in the x-direction = -5.70659e-05 m, y-direction = -0.074556 m.
Computing wall distances.

-------------------- Solver Preprocessing ( Zone 0 ) --------------------
Viscous flow: Computing pressure using the ideal gas law
based on the free-stream temperature and a density computed
from the Reynolds number.
Force coefficients computed using free-stream values.

-- Models:
+------------------------------------------------------------------------------+
|          Viscosity Model|        Conductivity Model|              Fluid Model|
+------------------------------------------------------------------------------+
|               SUTHERLAND|          CONSTANT_PRANDTL|             STANDARD_AIR|
+------------------------------------------------------------------------------+
-- Fluid properties:
+------------------------------------------------------------------------------+
|                  Name|    Dim. value|    Ref. value|      Unit|Non-dim. value|
+------------------------------------------------------------------------------+
|        Ref. Viscosity|     1.716e-05|       738.367|   N.s/m^2|   2.32405e-08|
|      Sutherland Temp.|        273.15|           300|         K|        0.9105|
|     Sutherland Const.|         110.4|           300|         K|         0.368|
+------------------------------------------------------------------------------+
|        Prandtl (Lam.)|             -|             -|         -|          0.72|
|       Prandtl (Turb.)|             -|             -|         -|           0.9|
+------------------------------------------------------------------------------+
|          Gas Constant|       287.058|       401.881|  N.m/kg.K|      0.714286|
|      Spec. Heat Ratio|             -|             -|         -|           1.4|
+------------------------------------------------------------------------------+
-- Initial and free-stream conditions:
+------------------------------------------------------------------------------+
|                  Name|    Dim. value|    Ref. value|      Unit|Non-dim. value|
+------------------------------------------------------------------------------+
|       Static Pressure|        183127|        256378|        Pa|      0.714286|
|               Density|       2.12649|       2.12649|    kg/m^3|             1|
|           Temperature|           300|           300|         K|             1|
|          Total Energy|        216650|        120564|   m^2/s^2|       1.79696|
|            Velocity-X|       51.2923|       347.224|       m/s|      0.147721|
|            Velocity-Y|       9.04422|       347.224|       m/s|     0.0260472|
|    Velocity Magnitude|       52.0836|       347.224|       m/s|          0.15|
+------------------------------------------------------------------------------+
|             Viscosity|   1.84592e-05|       738.367|   N.s/m^2|       2.5e-08|
|          Conductivity|             -|        296736|   W/m^2.K|             -|
|     Turb. Kin. Energy|       10.1726|        120564|   m^2/s^2|    8.4375e-05|
|     Spec. Dissipation|        117188|       347.224|       1/s|         337.5|
+------------------------------------------------------------------------------+
|           Mach Number|             -|             -|         -|          0.15|
|       Reynolds Number|             -|             -|         -|         6e+06|
+------------------------------------------------------------------------------+
Initialize Jacobian structure (Navier-Stokes). MG level: 0.
Initialize Jacobian structure (SA model).

------------------- Numerics Preprocessing ( Zone 0 ) -------------------

----------------- Integration Preprocessing ( Zone 0 ) ------------------

------------------- Iteration Preprocessing ( Zone 0 ) ------------------
Euler/Navier-Stokes/RANS fluid iteration.

------------------------------ Begin Solver -----------------------------

Simulation Run using the Single-zone Driver
WARNING: SU2 was not compiled for an AVX-capable architecture. Performance could be better,
         see https://su2code.github.io/docs_v7/Build-SU2-Linux-MacOS/#compiler-optimizations
+------------------------------------------------------------------------------------------+
|  Inner_Iter|    rms[Rho]|          CD|Linear_Solve|   LinSolRes|LinSolIterTu|LinSolResTur|
+------------------------------------------------------------------------------------------+
|           0|   -3.942881|  3.5115e+00|           3|   -1.160428|           2|   -1.434453|
|           1|   -4.354306|  2.1415e+00|           4|   -1.047474|           2|   -1.671148|
|           2|   -4.470476|  7.2110e-01|           4|   -1.028823|           2|   -1.647356|
|           3|   -4.776338|  5.8302e-02|           6|   -1.204438|           2|   -1.797658|
|           4|   -5.203253| -6.5998e-02|           7|   -1.157246|           2|   -2.013059|
|           5|   -5.470762| -3.7647e-03|           7|   -1.090690|           2|   -2.231620|
|           6|   -5.794394|  7.2821e-02|           7|   -1.023668|           2|   -2.418021|
|           7|   -5.897564|  1.1753e-01|           8|   -1.175830|           2|   -2.551355|
|           8|   -5.970701|  1.3100e-01|           8|   -1.183212|           2|   -2.591713|
|           9|   -6.127847|  1.2683e-01|           8|   -1.169685|           2|   -2.561769|
|          10|   -6.284159|  1.1810e-01|           8|   -1.171707|           2|   -2.509499|
|          11|   -6.348708|  1.1230e-01|           8|   -1.201476|           2|   -2.469194|
|          12|   -6.387856|  1.1056e-01|           7|   -1.046397|           2|   -2.440209|
|          13|   -6.420270|  1.1116e-01|           7|   -1.074485|           2|   -2.406600|
|          14|   -6.441992|  1.1188e-01|           7|   -1.078257|           2|   -2.363792|
|          15|   -6.464483|  1.1158e-01|           7|   -1.076176|           2|   -2.317629|
|          16|   -6.491137|  1.1027e-01|           7|   -1.077879|           2|   -2.263837|
|          17|   -6.520875|  1.0845e-01|           7|   -1.083397|           2|   -2.188637|
|          18|   -6.550627|  1.0655e-01|           7|   -1.090495|           2|   -2.086922|
|          19|   -6.577592|  1.0478e-01|           7|   -1.098041|           2|   -1.975141|
|          20|   -6.600028|  1.0317e-01|           7|   -1.106564|           2|   -1.877709|
|          21|   -6.619041|  1.0167e-01|           7|   -1.117015|           2|   -1.813142|
|          22|   -6.634234|  1.0023e-01|           7|   -1.130094|           2|   -1.785432|
|          23|   -6.646622|  9.8837e-02|           7|   -1.145381|           2|   -1.786754|
|          24|   -6.656990|  9.7496e-02|           7|   -1.161886|           2|   -1.800991|
|          25|   -6.665648|  9.6333e-02|           6|   -1.009263|           2|   -1.813001|
|          26|   -6.666113|  9.5033e-02|           6|   -1.020199|           2|   -1.809685|
|          27|   -6.669453|  9.3816e-02|           6|   -1.031785|           2|   -1.798733|
|          28|   -6.678065|  9.2728e-02|           6|   -1.043370|           2|   -1.778157|
|          29|   -6.683990|  9.1755e-02|           6|   -1.054604|           2|   -1.745549|
|          30|   -6.687452|  9.0872e-02|           6|   -1.064931|           2|   -1.705021|
|          31|   -6.690192|  9.0054e-02|           6|   -1.074385|           2|   -1.665227|
|          32|   -6.692645|  8.9288e-02|           6|   -1.083169|           2|   -1.634147|
|          33|   -6.694799|  8.8567e-02|           6|   -1.091394|           2|   -1.616522|
|          34|   -6.696823|  8.7893e-02|           6|   -1.099103|           2|   -1.612047|
|          35|   -6.698934|  8.7261e-02|           6|   -1.106340|           2|   -1.615930|
|          36|   -6.701329|  8.6668e-02|           6|   -1.113151|           2|   -1.621204|
|          37|   -6.704208|  8.6104e-02|           6|   -1.119554|           2|   -1.622841|
|          38|   -6.707752|  8.5561e-02|           6|   -1.125584|           2|   -1.618859|
|          39|   -6.712102|  8.5031e-02|           6|   -1.131248|           2|   -1.609975|
|          40|   -6.717358|  8.4507e-02|           6|   -1.136567|           2|   -1.598321|
|          41|   -6.723585|  8.3982e-02|           6|   -1.141590|           2|   -1.585550|
|          42|   -6.730786|  8.3450e-02|           6|   -1.146452|           2|   -1.572481|
|          43|   -6.738938|  8.2906e-02|           6|   -1.151412|           2|   -1.559745|
|          44|   -6.748003|  8.2344e-02|           6|   -1.156397|           2|   -1.547104|
|          45|   -6.757880|  8.1762e-02|           6|   -1.162099|           2|   -1.534924|
|          46|   -6.768809|  8.1156e-02|           6|   -1.168761|           2|   -1.523634|
|          47|   -6.780514|  8.0524e-02|           6|   -1.176747|           2|   -1.513216|
|          48|   -6.792970|  7.9865e-02|           6|   -1.186132|           2|   -1.503642|
|          49|   -6.806317|  7.9181e-02|           6|   -1.196399|           2|   -1.492649|
|          50|   -6.820526|  7.8472e-02|           6|   -1.206645|           2|   -1.478009|
|          51|   -6.835593|  7.7743e-02|           6|   -1.215899|           2|   -1.460286|
|          52|   -6.851453|  7.6997e-02|           6|   -1.223800|           2|   -1.440945|
|          53|   -6.868033|  7.6237e-02|           6|   -1.231097|           2|   -1.422338|
|          54|   -6.885197|  7.5469e-02|           6|   -1.238185|           2|   -1.407846|
|          55|   -6.902844|  7.4776e-02|           5|   -1.007077|           2|   -1.397387|
|          56|   -6.900571|  7.3976e-02|           5|   -1.018010|           2|   -1.390299|
|          57|   -6.912630|  7.3186e-02|           5|   -1.029709|           2|   -1.386412|
|          58|   -6.933554|  7.2447e-02|           5|   -1.036341|           2|   -1.384905|
|          59|   -6.952632|  7.1746e-02|           5|   -1.040611|           2|   -1.385090|
|          60|   -6.969464|  7.1069e-02|           5|   -1.043295|           2|   -1.385984|
|          61|   -6.985640|  7.0417e-02|           5|   -1.044114|           2|   -1.387942|
|          62|   -7.001437|  6.9792e-02|           5|   -1.043005|           2|   -1.391260|
|          63|   -7.016743|  6.9201e-02|           5|   -1.040258|           2|   -1.396190|
|          64|   -7.031755|  6.8650e-02|           5|   -1.036417|           2|   -1.402936|
|          65|   -7.046728|  6.8142e-02|           5|   -1.032276|           2|   -1.409525|
|          66|   -7.061935|  6.7677e-02|           5|   -1.028786|           2|   -1.419350|
|          67|   -7.077614|  6.7256e-02|           5|   -1.026953|           2|   -1.431666|
|          68|   -7.093953|  6.6879e-02|           5|   -1.027720|           2|   -1.446326|
|          69|   -7.110952|  6.6544e-02|           5|   -1.031840|           2|   -1.463047|
|          70|   -7.128399|  6.6254e-02|           5|   -1.040083|           2|   -1.481507|
|          71|   -7.145766|  6.6006e-02|           5|   -1.052774|           2|   -1.503674|
|          72|   -7.162672|  6.5802e-02|           5|   -1.070425|           2|   -1.527409|
|          73|   -7.177939|  6.5638e-02|           5|   -1.093130|           2|   -1.553329|
|          74|   -7.190600|  6.5513e-02|           5|   -1.120636|           1|   -1.001537|
|          75|   -7.199956|  6.5424e-02|           5|   -1.152177|           1|   -1.020081|
|          76|   -7.205522|  6.5369e-02|           5|   -1.186786|           1|   -1.036904|
|          77|   -7.207399|  6.5344e-02|           5|   -1.222346|           1|   -1.056224|
|          78|   -7.205887|  6.5345e-02|           5|   -1.256190|           1|   -1.077422|
|          79|   -7.201924|  6.5363e-02|           4|   -1.016115|           1|   -1.100127|
|          80|   -7.176193|  6.5412e-02|           4|   -1.032123|           1|   -1.121123|
|          81|   -7.166621|  6.5472e-02|           4|   -1.026337|           1|   -1.142003|
|          82|   -7.166455|  6.5538e-02|           4|   -1.018164|           1|   -1.162639|
|          83|   -7.164375|  6.5613e-02|           4|   -1.005412|           1|   -1.182194|
|          84|   -7.162190|  6.5709e-02|           5|   -1.289734|           1|   -1.200871|
|          85|   -7.174946|  6.5806e-02|           5|   -1.272332|           1|   -1.219566|
|          86|   -7.181326|  6.5915e-02|           5|   -1.257007|           1|   -1.237927|
|          87|   -7.188028|  6.6028e-02|           5|   -1.238143|           1|   -1.256337|
|          88|   -7.195565|  6.6137e-02|           5|   -1.221276|           1|   -1.274564|
|          89|   -7.204669|  6.6239e-02|           5|   -1.207717|           1|   -1.292265|
|          90|   -7.215204|  6.6338e-02|           5|   -1.196959|           1|   -1.309462|
|          91|   -7.226754|  6.6437e-02|           5|   -1.188736|           1|   -1.324256|
|          92|   -7.239079|  6.6535e-02|           5|   -1.182834|           1|   -1.335101|
|          93|   -7.252007|  6.6631e-02|           5|   -1.178726|           1|   -1.343318|
|          94|   -7.265226|  6.6726e-02|           5|   -1.175646|           1|   -1.345165|
|          95|   -7.278447|  6.6817e-02|           5|   -1.172692|           1|   -1.342615|
|          96|   -7.291430|  6.6905e-02|           5|   -1.168944|           1|   -1.335508|
|          97|   -7.304108|  6.6990e-02|           5|   -1.163547|           1|   -1.324119|
|          98|   -7.316508|  6.7073e-02|           5|   -1.157725|           1|   -1.309045|
|          99|   -7.323760|  6.7153e-02|           5|   -1.147093|           1|   -1.290853|
|         100|   -7.340396|  6.7230e-02|           5|   -1.134971|           1|   -1.270254|
|         101|   -7.353855|  6.7306e-02|           5|   -1.122083|           1|   -1.247758|
|         102|   -7.366519|  6.7380e-02|           5|   -1.109190|           1|   -1.223826|
|         103|   -7.384069|  6.7452e-02|           5|   -1.097053|           1|   -1.198787|
|         104|   -7.401854|  6.7521e-02|           5|   -1.087912|           1|   -1.172904|
|         105|   -7.418665|  6.7589e-02|           5|   -1.080546|           1|   -1.146376|
|         106|   -7.442363|  6.7654e-02|           5|   -1.075522|           1|   -1.119375|
|         107|   -7.467661|  6.7717e-02|           5|   -1.073605|           1|   -1.092092|
|         108|   -7.495026|  6.7778e-02|           5|   -1.074385|           1|   -1.064800|
|         109|   -7.524779|  6.7836e-02|           5|   -1.077398|           1|   -1.037976|
|         110|   -7.556939|  6.7892e-02|           5|   -1.082076|           1|   -1.012222|
|         111|   -7.591286|  6.7944e-02|           5|   -1.087765|           2|   -1.818698|
|         112|   -7.627391|  6.7994e-02|           5|   -1.094044|           2|   -1.778116|
|         113|   -7.664624|  6.8041e-02|           5|   -1.099907|           2|   -1.752292|
|         114|   -7.702202|  6.8084e-02|           5|   -1.104985|           1|   -1.001506|
|         115|   -7.739257|  6.8125e-02|           5|   -1.108938|           1|   -1.005401|
|         116|   -7.774780|  6.8162e-02|           5|   -1.112004|           1|   -1.010961|
|         117|   -7.807775|  6.8196e-02|           5|   -1.114437|           1|   -1.027766|
|         118|   -7.837413|  6.8226e-02|           5|   -1.116368|           1|   -1.055158|
|         119|   -7.863644|  6.8253e-02|           5|   -1.118272|           1|   -1.090645|
|         120|   -7.885561|  6.8277e-02|           5|   -1.120593|           1|   -1.131084|
|         121|   -7.903397|  6.8299e-02|           5|   -1.123690|           1|   -1.173280|
|         122|   -7.917388|  6.8317e-02|           5|   -1.127862|           1|   -1.214475|
|         123|   -7.927934|  6.8332e-02|           5|   -1.133316|           1|   -1.252210|
|         124|   -7.935456|  6.8345e-02|           5|   -1.140156|           1|   -1.284789|
|         125|   -7.940393|  6.8356e-02|           5|   -1.148321|           1|   -1.311288|
|         126|   -7.943239|  6.8364e-02|           5|   -1.157713|           1|   -1.331597|
|         127|   -7.944472|  6.8371e-02|           5|   -1.168080|           1|   -1.346111|
|         128|   -7.944596|  6.8376e-02|           5|   -1.179042|           1|   -1.355448|
|         129|   -7.944190|  6.8380e-02|           5|   -1.190170|           1|   -1.360294|
|         130|   -7.943757|  6.8382e-02|           5|   -1.200733|           1|   -1.361085|
|         131|   -7.943871|  6.8384e-02|           5|   -1.210331|           1|   -1.358171|
|         132|   -7.944894|  6.8385e-02|           5|   -1.218117|           1|   -1.351758|
|         133|   -7.947317|  6.8385e-02|           5|   -1.223509|           1|   -1.341984|
|         134|   -7.951464|  6.8385e-02|           5|   -1.226022|           1|   -1.329122|
|         135|   -7.957534|  6.8385e-02|           5|   -1.225341|           1|   -1.313494|
|         136|   -7.965727|  6.8385e-02|           5|   -1.221505|           1|   -1.295475|
|         137|   -7.976108|  6.8385e-02|           5|   -1.214686|           1|   -1.275478|
|         138|   -7.988659|  6.8385e-02|           5|   -1.205384|           1|   -1.253912|
|         139|   -8.003243|  6.8386e-02|           5|   -1.194214|           1|   -1.231132|
|         140|   -8.019609|  6.8386e-02|           5|   -1.181832|           1|   -1.207515|
|         141|   -8.037366|  6.8386e-02|           5|   -1.168870|           1|   -1.183411|
|         142|   -8.056001|  6.8387e-02|           5|   -1.155728|           1|   -1.159169|
|         143|   -8.074784|  6.8388e-02|           5|   -1.142908|           1|   -1.135156|
|         144|   -8.093009|  6.8389e-02|           5|   -1.130563|           1|   -1.111784|
|         145|   -8.109894|  6.8390e-02|           5|   -1.118810|           1|   -1.089528|
|         146|   -8.124707|  6.8392e-02|           5|   -1.107668|           1|   -1.068886|
|         147|   -8.136985|  6.8393e-02|           5|   -1.097026|           1|   -1.050443|
|         148|   -8.146546|  6.8394e-02|           5|   -1.086472|           1|   -1.034740|
|         149|   -8.153118|  6.8395e-02|           5|   -1.077148|           1|   -1.022176|
|         150|   -8.158358|  6.8396e-02|           5|   -1.067329|           1|   -1.012954|
|         151|   -8.162230|  6.8397e-02|           5|   -1.057463|           1|   -1.006983|
|         152|   -8.165727|  6.8397e-02|           5|   -1.047478|           1|   -1.003736|
|         153|   -8.169366|  6.8398e-02|           5|   -1.037381|           1|   -1.001172|
|         154|   -8.173760|  6.8398e-02|           5|   -1.026870|           1|   -1.001284|
|         155|   -8.179826|  6.8398e-02|           5|   -1.016177|           1|   -1.002816|
|         156|   -8.187674|  6.8397e-02|           5|   -1.005269|           1|   -1.004399|
|         157|   -8.197319|  6.8393e-02|           6|   -1.211096|           1|   -1.006629|
|         158|   -8.214743|  6.8394e-02|           6|   -1.199201|           1|   -1.006901|
|         159|   -8.230329|  6.8395e-02|           6|   -1.189821|           1|   -1.006552|
|         160|   -8.246448|  6.8394e-02|           6|   -1.181694|           1|   -1.005503|
|         161|   -8.262875|  6.8393e-02|           6|   -1.174618|           1|   -1.004213|
|         162|   -8.279842|  6.8391e-02|           6|   -1.168358|           1|   -1.003033|
|         163|   -8.296933|  6.8388e-02|           6|   -1.162941|           1|   -1.002286|
|         164|   -8.313541|  6.8386e-02|           6|   -1.158351|           1|   -1.002010|
|         165|   -8.329187|  6.8384e-02|           6|   -1.154495|           1|   -1.001352|
|         166|   -8.343513|  6.8382e-02|           6|   -1.151321|           1|   -1.003000|
|         167|   -8.356260|  6.8379e-02|           6|   -1.148773|           1|   -1.007677|
|         168|   -8.367334|  6.8377e-02|           6|   -1.146798|           1|   -1.013799|
|         169|   -8.376722|  6.8375e-02|           6|   -1.145177|           1|   -1.021060|
|         170|   -8.384715|  6.8373e-02|           6|   -1.143660|           1|   -1.029203|
|         171|   -8.391619|  6.8372e-02|           6|   -1.142040|           1|   -1.038094|
|         172|   -8.397712|  6.8370e-02|           6|   -1.140152|           1|   -1.047143|
|         173|   -8.403304|  6.8369e-02|           6|   -1.137899|           1|   -1.055946|
|         174|   -8.408652|  6.8368e-02|           6|   -1.135283|           1|   -1.064190|
|         175|   -8.413935|  6.8367e-02|           6|   -1.132381|           1|   -1.071633|
|         176|   -8.419279|  6.8367e-02|           6|   -1.129350|           1|   -1.078112|
|         177|   -8.424744|  6.8367e-02|           6|   -1.126400|           1|   -1.083926|
|         178|   -8.430342|  6.8367e-02|           6|   -1.123763|           1|   -1.089316|
|         179|   -8.436056|  6.8367e-02|           6|   -1.121667|           1|   -1.093452|
|         180|   -8.441851|  6.8368e-02|           6|   -1.120314|           1|   -1.096041|
|         181|   -8.447683|  6.8369e-02|           6|   -1.119828|           1|   -1.097318|
|         182|   -8.453550|  6.8370e-02|           6|   -1.120325|           1|   -1.097591|
|         183|   -8.459406|  6.8371e-02|           6|   -1.121828|           1|   -1.097294|
|         184|   -8.465250|  6.8373e-02|           6|   -1.124324|           1|   -1.096222|
|         185|   -8.471102|  6.8374e-02|           6|   -1.127752|           1|   -1.094655|
|         186|   -8.476955|  6.8376e-02|           6|   -1.132139|           1|   -1.093204|
|         187|   -8.482877|  6.8378e-02|           6|   -1.137082|           1|   -1.092015|
|         188|   -8.488949|  6.8381e-02|           6|   -1.142466|           1|   -1.091335|
|         189|   -8.495078|  6.8383e-02|           6|   -1.148125|           1|   -1.091419|
|         190|   -8.501316|  6.8386e-02|           6|   -1.153766|           1|   -1.092515|
|         191|   -8.507660|  6.8389e-02|           6|   -1.159087|           1|   -1.094856|
|         192|   -8.514094|  6.8392e-02|           6|   -1.163784|           1|   -1.098657|
|         193|   -8.520588|  6.8395e-02|           6|   -1.167572|           1|   -1.104105|
|         194|   -8.527101|  6.8398e-02|           6|   -1.170217|           1|   -1.111364|
|         195|   -8.533584|  6.8402e-02|           6|   -1.171563|           1|   -1.120568|
|         196|   -8.539984|  6.8406e-02|           6|   -1.171558|           1|   -1.131830|
|         197|   -8.546247|  6.8410e-02|           6|   -1.170262|           1|   -1.145238|
|         198|   -8.552322|  6.8414e-02|           6|   -1.167837|           1|   -1.160858|
|         199|   -8.558161|  6.8419e-02|           6|   -1.164524|           1|   -1.178736|
|         200|   -8.563728|  6.8424e-02|           6|   -1.160612|           1|   -1.198893|
|         201|   -8.568991|  6.8429e-02|           6|   -1.156373|           1|   -1.221368|
|         202|   -8.573929|  6.8434e-02|           6|   -1.152130|           1|   -1.246121|
|         203|   -8.578539|  6.8439e-02|           6|   -1.148073|           1|   -1.273128|
|         204|   -8.582810|  6.8445e-02|           6|   -1.144395|           1|   -1.302341|
|         205|   -8.586751|  6.8450e-02|           6|   -1.141241|           1|   -1.333680|
|         206|   -8.590368|  6.8457e-02|           5|   -1.005113|           1|   -1.367016|
|         207|   -8.541145|  6.8463e-02|           5|   -1.010703|           1|   -1.402083|
|         208|   -8.551202|  6.8467e-02|           6|   -1.183356|           1|   -1.438456|
|         209|   -8.590055|  6.8474e-02|           6|   -1.146045|           1|   -1.476193|
|         210|   -8.598243|  6.8480e-02|           6|   -1.137745|           1|   -1.514528|
|         211|   -8.603413|  6.8487e-02|           6|   -1.134985|           1|   -1.552592|
|         212|   -8.606286|  6.8494e-02|           6|   -1.134588|           1|   -1.589546|
|         213|   -8.608406|  6.8500e-02|           6|   -1.135285|           1|   -1.624415|
|         214|   -8.610361|  6.8507e-02|           6|   -1.136684|           1|   -1.656149|
|         215|   -8.612192|  6.8513e-02|           6|   -1.138526|           1|   -1.683815|
|         216|   -8.613934|  6.8520e-02|           6|   -1.140571|           1|   -1.706756|
|         217|   -8.615612|  6.8526e-02|           6|   -1.142705|           1|   -1.724685|
|         218|   -8.617250|  6.8533e-02|           6|   -1.144941|           1|   -1.737695|
|         219|   -8.618864|  6.8540e-02|           6|   -1.147362|           1|   -1.746188|
|         220|   -8.620467|  6.8546e-02|           6|   -1.150049|           1|   -1.750731|
|         221|   -8.622070|  6.8553e-02|           6|   -1.153059|           1|   -1.751918|
|         222|   -8.623680|  6.8559e-02|           6|   -1.156422|           1|   -1.750280|
|         223|   -8.625301|  6.8565e-02|           6|   -1.160154|           1|   -1.746234|
|         224|   -8.626939|  6.8572e-02|           6|   -1.164263|           1|   -1.740082|
|         225|   -8.628592|  6.8578e-02|           6|   -1.168759|           1|   -1.732031|
|         226|   -8.630260|  6.8584e-02|           6|   -1.173651|           1|   -1.722220|
|         227|   -8.631939|  6.8590e-02|           6|   -1.178944|           1|   -1.710744|
|         228|   -8.633626|  6.8596e-02|           6|   -1.184637|           1|   -1.697668|
|         229|   -8.635318|  6.8602e-02|           6|   -1.190724|           1|   -1.683046|
|         230|   -8.637011|  6.8607e-02|           6|   -1.197185|           1|   -1.666921|
|         231|   -8.638703|  6.8613e-02|           6|   -1.203988|           1|   -1.649338|
|         232|   -8.640391|  6.8619e-02|           5|   -1.001852|           1|   -1.631694|
|         233|   -8.641458|  6.8625e-02|           5|   -1.016433|           1|   -1.611988|
|         234|   -8.643173|  6.8630e-02|           5|   -1.021705|           1|   -1.591175|
|         235|   -8.645076|  6.8636e-02|           5|   -1.024463|           1|   -1.569295|
|         236|   -8.646786|  6.8641e-02|           5|   -1.028629|           1|   -1.546144|
|         237|   -8.648417|  6.8646e-02|           5|   -1.033601|           1|   -1.521713|
|         238|   -8.650065|  6.8652e-02|           5|   -1.038580|           1|   -1.496112|
|         239|   -8.651729|  6.8657e-02|           5|   -1.043572|           1|   -1.469467|
|         240|   -8.653382|  6.8663e-02|           5|   -1.049042|           1|   -1.441923|
|         241|   -8.654983|  6.8668e-02|           5|   -1.056427|           1|   -1.413666|
|         242|   -8.656347|  6.8673e-02|           5|   -1.075157|           1|   -1.384897|
|         243|   -8.656104|  6.8679e-02|           4|   -1.163365|           1|   -1.355811|
|         244|   -8.610611|  6.8684e-02|           4|   -1.159952|           1|   -1.328816|
|         245|   -8.562346|  6.8689e-02|           4|   -1.131788|           1|   -1.303536|
|         246|   -8.653645|  6.8694e-02|           5|   -1.137311|           1|   -1.279244|
|         247|   -8.654343|  6.8699e-02|           5|   -1.113810|           1|   -1.254977|
|         248|   -8.665493|  6.8705e-02|           5|   -1.089732|           1|   -1.231271|
|         249|   -8.668966|  6.8710e-02|           5|   -1.087350|           1|   -1.208398|
|         250|   -8.671134|  6.8715e-02|           5|   -1.088677|           1|   -1.186868|
|         251|   -8.673114|  6.8720e-02|           5|   -1.090426|           1|   -1.167246|
|         252|   -8.675116|  6.8725e-02|           5|   -1.092561|           1|   -1.150005|
|         253|   -8.677080|  6.8731e-02|           5|   -1.095365|           1|   -1.135462|
|         254|   -8.679051|  6.8736e-02|           5|   -1.098609|           1|   -1.123772|
|         255|   -8.681030|  6.8741e-02|           5|   -1.102114|           1|   -1.114958|
|         256|   -8.683015|  6.8746e-02|           5|   -1.105826|           1|   -1.108954|
|         257|   -8.685006|  6.8751e-02|           5|   -1.109753|           1|   -1.105623|
|         258|   -8.687000|  6.8756e-02|           5|   -1.113909|           1|   -1.104767|
|         259|   -8.688994|  6.8761e-02|           5|   -1.118278|           1|   -1.106129|
|         260|   -8.690985|  6.8766e-02|           5|   -1.122833|           1|   -1.109396|
|         261|   -8.692972|  6.8771e-02|           5|   -1.127565|           1|   -1.114209|
|         262|   -8.694953|  6.8775e-02|           5|   -1.132503|           1|   -1.120166|
|         263|   -8.696927|  6.8780e-02|           5|   -1.137708|           1|   -1.126846|
|         264|   -8.698893|  6.8785e-02|           5|   -1.143253|           1|   -1.133623|
|         265|   -8.700850|  6.8790e-02|           5|   -1.149196|           1|   -1.140285|
|         266|   -8.702796|  6.8795e-02|           4|   -1.000675|           1|   -1.147324|
|         267|   -8.704482|  6.8799e-02|           4|   -1.019534|           1|   -1.154112|
|         268|   -8.706417|  6.8804e-02|           4|   -1.026801|           1|   -1.160714|
|         269|   -8.708439|  6.8808e-02|           4|   -1.028823|           1|   -1.166768|
|         270|   -8.710351|  6.8813e-02|           4|   -1.033211|           1|   -1.172276|
|         271|   -8.712197|  6.8817e-02|           4|   -1.040121|           1|   -1.177427|
|         272|   -8.714016|  6.8822e-02|           4|   -1.047978|           1|   -1.182328|
|         273|   -8.715783|  6.8826e-02|           4|   -1.056980|           1|   -1.186981|
|         274|   -8.717331|  6.8831e-02|           4|   -1.078843|           1|   -1.191197|
|         275|   -8.715928|  6.8835e-02|           4|   -1.100839|           1|   -1.195718|
|         276|   -8.711480|  6.8840e-02|           4|   -1.109190|           1|   -1.199596|
|         277|   -8.722129|  6.8844e-02|           4|   -1.093333|           1|   -1.202615|
|         278|   -8.724019|  6.8848e-02|           4|   -1.100662|           1|   -1.204598|
|         279|   -8.726146|  6.8852e-02|           4|   -1.109101|           1|   -1.205435|
|         280|   -8.727804|  6.8857e-02|           4|   -1.119603|           1|   -1.205116|
|         281|   -8.729411|  6.8861e-02|           4|   -1.130672|           1|   -1.203683|
|         282|   -8.730960|  6.8865e-02|           4|   -1.142262|           1|   -1.201182|
|         283|   -8.732467|  6.8870e-02|           3|   -1.008818|           1|   -1.199887|
|         284|   -8.733349|  6.8874e-02|           3|   -1.021239|           1|   -1.194836|
|         285|   -8.734699|  6.8878e-02|           3|   -1.034961|           1|   -1.188505|
|         286|   -8.736154|  6.8882e-02|           3|   -1.047304|           1|   -1.181296|
|         287|   -8.737559|  6.8886e-02|           3|   -1.058159|           1|   -1.172790|
|         288|   -8.738903|  6.8890e-02|           3|   -1.069140|           1|   -1.162822|
|         289|   -8.740190|  6.8894e-02|           3|   -1.081332|           1|   -1.151532|
|         290|   -8.741424|  6.8898e-02|           3|   -1.094238|           1|   -1.139012|
|         291|   -8.742605|  6.8902e-02|           3|   -1.107065|           1|   -1.125271|
|         292|   -8.743735|  6.8906e-02|           3|   -1.119530|           1|   -1.110355|
|         293|   -8.744818|  6.8910e-02|           3|   -1.131791|           1|   -1.094355|
|         294|   -8.745857|  6.8914e-02|           3|   -1.144120|           1|   -1.077355|
|         295|   -8.746853|  6.8918e-02|           3|   -1.156682|           1|   -1.059420|
|         296|   -8.747808|  6.8922e-02|           3|   -1.169509|           1|   -1.040603|
|         297|   -8.748720|  6.8926e-02|           3|   -1.182568|           1|   -1.020976|
|         298|   -8.749589|  6.8930e-02|           3|   -1.195806|           1|   -1.000629|
|         299|   -8.750415|  6.8934e-02|           3|   -1.209162|           2|   -1.578514|
|         300|   -8.751198|  6.8938e-02|           3|   -1.222646|           2|   -1.535527|
|         301|   -8.751939|  6.8942e-02|           3|   -1.236169|           2|   -1.499713|
|         302|   -8.752637|  6.8946e-02|           2|   -1.000287|           2|   -1.470786|
|         303|   -8.752675|  6.8951e-02|           2|   -1.018260|           2|   -1.445339|
|         304|   -8.753177|  6.8955e-02|           2|   -1.010193|           2|   -1.424504|
|         305|   -8.753941|  6.8959e-02|           2|   -1.018928|           2|   -1.407063|
|         306|   -8.754658|  6.8963e-02|           2|   -1.033579|           2|   -1.390358|
|         307|   -8.755283|  6.8966e-02|           2|   -1.046076|           2|   -1.374834|
|         308|   -8.755803|  6.8970e-02|           2|   -1.056353|           2|   -1.360800|
|         309|   -8.756237|  6.8974e-02|           2|   -1.067082|           2|   -1.347814|
|         310|   -8.756620|  6.8978e-02|           2|   -1.078575|           2|   -1.335870|
|         311|   -8.756962|  6.8982e-02|           2|   -1.090479|           2|   -1.325150|
|         312|   -8.757261|  6.8986e-02|           2|   -1.102334|           2|   -1.315609|
|         313|   -8.757511|  6.8990e-02|           2|   -1.113735|           2|   -1.307154|
|         314|   -8.757712|  6.8994e-02|           2|   -1.124477|           2|   -1.299767|
|         315|   -8.757865|  6.8997e-02|           2|   -1.134505|           2|   -1.293463|
|         316|   -8.757973|  6.9001e-02|           2|   -1.143830|           2|   -1.288256|
|         317|   -8.758038|  6.9005e-02|           2|   -1.152530|           2|   -1.284163|
|         318|   -8.758058|  6.9009e-02|           2|   -1.160730|           2|   -1.281192|
|         319|   -8.758033|  6.9013e-02|           2|   -1.168565|           2|   -1.279340|
|         320|   -8.757963|  6.9017e-02|           2|   -1.176145|           2|   -1.278598|
|         321|   -8.757847|  6.9021e-02|           2|   -1.183520|           2|   -1.278954|
|         322|   -8.757685|  6.9024e-02|           2|   -1.190655|           2|   -1.280379|
|         323|   -8.757476|  6.9028e-02|           2|   -1.197461|           2|   -1.282826|
|         324|   -8.757222|  6.9032e-02|           2|   -1.203852|           2|   -1.286231|
|         325|   -8.756919|  6.9036e-02|           2|   -1.209796|           2|   -1.290514|
|         326|   -8.756568|  6.9040e-02|           2|   -1.215323|           2|   -1.295581|
|         327|   -8.756168|  6.9044e-02|           2|   -1.220506|           2|   -1.301335|
|         328|   -8.755718|  6.9048e-02|           2|   -1.225425|           2|   -1.307675|
|         329|   -8.755217|  6.9051e-02|           2|   -1.230144|           2|   -1.314500|
|         330|   -8.754664|  6.9055e-02|           2|   -1.234700|           2|   -1.321712|
|         331|   -8.754058|  6.9059e-02|           2|   -1.239104|           2|   -1.329219|
|         332|   -8.753397|  6.9063e-02|           2|   -1.243355|           2|   -1.336941|
|         333|   -8.752682|  6.9067e-02|           2|   -1.247454|           2|   -1.344804|
|         334|   -8.751911|  6.9071e-02|           2|   -1.251407|           2|   -1.352750|
|         335|   -8.751083|  6.9074e-02|           2|   -1.255234|           2|   -1.360727|
|         336|   -8.750196|  6.9078e-02|           2|   -1.258963|           2|   -1.368693|
|         337|   -8.749251|  6.9082e-02|           2|   -1.262627|           2|   -1.376613|
|         338|   -8.748246|  6.9086e-02|           2|   -1.266259|           2|   -1.384457|
|         339|   -8.747179|  6.9090e-02|           2|   -1.269886|           2|   -1.392197|
|         340|   -8.746050|  6.9094e-02|           2|   -1.273530|           2|   -1.399807|
|         341|   -8.744857|  6.9097e-02|           2|   -1.277205|           2|   -1.407265|
|         342|   -8.743599|  6.9101e-02|           2|   -1.280919|           2|   -1.414549|
|         343|   -8.742275|  6.9105e-02|           2|   -1.284671|           2|   -1.421641|
|         344|   -8.740883|  6.9109e-02|           2|   -1.288455|           2|   -1.428525|
|         345|   -8.739422|  6.9113e-02|           2|   -1.292260|           2|   -1.435187|
|         346|   -8.737890|  6.9117e-02|           2|   -1.296069|           2|   -1.441618|
|         347|   -8.736285|  6.9120e-02|           2|   -1.299866|           2|   -1.447810|
|         348|   -8.734606|  6.9124e-02|           2|   -1.303634|           2|   -1.453757|
|         349|   -8.732850|  6.9128e-02|           2|   -1.307358|           2|   -1.459456|
|         350|   -8.731016|  6.9132e-02|           2|   -1.311028|           2|   -1.464906|
|         351|   -8.729102|  6.9136e-02|           1|   -1.000130|           2|   -1.467328|
|         352|   -8.724901|  6.9140e-02|           2|   -1.309556|           2|   -1.474736|
|         353|   -8.724305|  6.9143e-02|           1|   -1.073358|           2|   -1.479932|
|         354|   -8.721317|  6.9147e-02|           1|   -1.009390|           2|   -1.484750|
|         355|   -8.717974|  6.9151e-02|           1|   -1.023806|           2|   -1.490832|
|         356|   -8.715652|  6.9155e-02|           1|   -1.050520|           2|   -1.496657|
|         357|   -8.713589|  6.9159e-02|           1|   -1.056606|           2|   -1.500817|
|         358|   -8.711228|  6.9163e-02|           1|   -1.052772|           2|   -1.504317|
|         359|   -8.708592|  6.9167e-02|           1|   -1.055212|           2|   -1.508594|
|         360|   -8.705849|  6.9171e-02|           1|   -1.061020|           2|   -1.513185|
|         361|   -8.703019|  6.9175e-02|           1|   -1.064189|           2|   -1.516718|
|         362|   -8.700066|  6.9179e-02|           1|   -1.065978|           2|   -1.519203|
|         363|   -8.696971|  6.9183e-02|           1|   -1.068012|           2|   -1.521695|
|         364|   -8.693738|  6.9187e-02|           1|   -1.070005|           2|   -1.524564|
|         365|   -8.690372|  6.9191e-02|           1|   -1.071929|           2|   -1.527353|
|         366|   -8.686874|  6.9195e-02|           1|   -1.074200|           2|   -1.529776|
|         367|   -8.683234|  6.9199e-02|           1|   -1.077269|           2|   -1.531923|
|         368|   -8.679443|  6.9203e-02|           1|   -1.080335|           2|   -1.533783|
|         369|   -8.675489|  6.9208e-02|           1|   -1.083322|           2|   -1.535239|
|         370|   -8.671362|  6.9212e-02|           1|   -1.086861|           2|   -1.536385|
|         371|   -8.667056|  6.9216e-02|           1|   -1.091235|           2|   -1.537423|
|         372|   -8.662562|  6.9220e-02|           1|   -1.095834|           2|   -1.538340|
|         373|   -8.657866|  6.9224e-02|           1|   -1.099952|           2|   -1.538953|
|         374|   -8.652950|  6.9228e-02|           1|   -1.103786|           2|   -1.539202|
|         375|   -8.647800|  6.9232e-02|           1|   -1.107860|           2|   -1.539215|
|         376|   -8.642403|  6.9236e-02|           1|   -1.112251|           2|   -1.539143|
|         377|   -8.636745|  6.9241e-02|           1|   -1.116572|           2|   -1.539064|
|         378|   -8.630810|  6.9244e-02|           2|   -1.348778|           1|   -1.082165|
|         379|   -7.711987|  6.9248e-02|           2|   -1.613231|           1|   -1.014165|
|         380|   -7.801196|  6.9252e-02|           2|   -1.628021|           2|   -1.526310|
|         381|   -8.221579|  6.9257e-02|           2|   -1.334876|           2|   -1.513726|
|         382|   -8.363394|  6.9261e-02|           2|   -1.202454|           2|   -1.497003|
|         383|   -8.526424|  6.9265e-02|           2|   -1.066904|           2|   -1.465404|
|         384|   -8.545621|  6.9269e-02|           2|   -1.066332|           2|   -1.433192|
|         385|   -8.557218|  6.9273e-02|           2|   -1.066564|           2|   -1.404635|
|         386|   -8.561910|  6.9277e-02|           2|   -1.071678|           2|   -1.381744|
|         387|   -8.557989|  6.9281e-02|           2|   -1.087705|           2|   -1.364799|
|         388|   -8.550908|  6.9285e-02|           2|   -1.108854|           2|   -1.352547|
|         389|   -8.542144|  6.9289e-02|           2|   -1.132365|           2|   -1.345270|
|         390|   -8.532153|  6.9293e-02|           2|   -1.156702|           2|   -1.343860|
|         391|   -8.521103|  6.9296e-02|           2|   -1.181503|           2|   -1.348387|
|         392|   -8.509180|  6.9300e-02|           2|   -1.229264|           2|   -1.439281|
|         393|   -7.995945|  6.9304e-02|           2|   -1.659494|           2|   -1.414396|
|         394|   -8.119242|  6.9307e-02|           1|   -1.024862|           2|   -1.399484|
|         395|   -8.414626|  6.9311e-02|           2|   -1.301126|           2|   -1.420074|
|         396|   -8.417656|  6.9315e-02|           2|   -1.281899|           2|   -1.431362|
|         397|   -8.425731|  6.9319e-02|           2|   -1.230569|           2|   -1.434644|
|         398|   -8.415010|  6.9322e-02|           2|   -1.387010|           2|   -1.430743|
|         399|   -8.387642|  6.9325e-02|           2|   -1.359352|           2|   -1.429043|
|         400|   -8.381093|  6.9329e-02|           2|   -1.333165|           2|   -1.429138|
|         401|   -8.362929|  6.9332e-02|           2|   -1.336542|           2|   -1.430621|
|         402|   -8.343762|  6.9335e-02|           2|   -1.344647|           2|   -1.433109|
|         403|   -8.322052|  6.9338e-02|           2|   -1.357002|           2|   -1.436020|
|         404|   -8.299128|  6.9340e-02|           2|   -1.369235|           2|   -1.438772|
|         405|   -8.275105|  6.9342e-02|           1|   -1.021375|           2|   -1.437202|
|         406|   -8.247181|  6.9344e-02|           1|   -1.061016|           2|   -1.440815|
|         407|   -8.219769|  6.9346e-02|           1|   -1.094641|           2|   -1.443994|
|         408|   -8.192733|  6.9348e-02|           2|   -1.147652|           1|   -1.243830|
|         409|   -7.893237|  6.9350e-02|           2|   -1.417354|           1|   -1.158135|
|         410|   -7.917194|  6.9351e-02|           2|   -1.378756|           1|   -1.179287|
|         411|   -8.079795|  6.9351e-02|           2|   -1.243185|           1|   -1.189088|
|         412|   -8.076919|  6.9352e-02|           2|   -1.242020|           1|   -1.172153|
|         413|   -8.062685|  6.9353e-02|           2|   -1.262938|           1|   -1.138655|
|         414|   -8.035659|  6.9354e-02|           2|   -1.296009|           1|   -1.102766|
|         415|   -8.005707|  6.9354e-02|           2|   -1.320605|           1|   -1.068460|
|         416|   -7.974563|  6.9355e-02|           2|   -1.339552|           1|   -1.032606|
|         417|   -7.941994|  6.9355e-02|           1|   -1.017420|           2|   -1.656715|
|         418|   -7.906049|  6.9354e-02|           1|   -1.041888|           2|   -1.601455|
|         419|   -7.870058|  6.9354e-02|           1|   -1.065142|           2|   -1.548833|
|         420|   -7.834345|  6.9355e-02|           1|   -1.072945|           2|   -1.509362|
|         421|   -7.797950|  6.9355e-02|           1|   -1.062470|           2|   -1.482670|
|         422|   -7.760120|  6.9355e-02|           1|   -1.060233|           2|   -1.471107|
|         423|   -7.721224|  6.9354e-02|           1|   -1.060483|           2|   -1.475443|
|         424|   -7.681638|  6.9353e-02|           1|   -1.056188|           2|   -1.491441|
|         425|   -7.641716|  6.9351e-02|           1|   -1.049290|           2|   -1.514034|
|         426|   -7.601725|  6.9349e-02|           1|   -1.043932|           2|   -1.540782|
|         427|   -7.562014|  6.9346e-02|           1|   -1.039668|           2|   -1.569225|
|         428|   -7.523136|  6.9342e-02|           1|   -1.034085|           2|   -1.595558|
|         429|   -7.485829|  6.9336e-02|           1|   -1.027418|           2|   -1.617421|
|         430|   -7.449172|  6.9330e-02|           1|   -1.021374|           2|   -1.634444|
|         431|   -7.420721|  6.9322e-02|           1|   -1.013159|           1|   -1.006763|
|         432|   -7.398564|  6.9314e-02|           1|   -1.004422|           1|   -1.025234|
|         433|   -7.383382|  6.9319e-02|           2|   -1.135803|           1|   -1.036772|
|         434|   -7.378120|  6.9319e-02|           2|   -1.127218|           1|   -1.047525|
|         435|   -7.383297|  6.9311e-02|           2|   -1.100145|           1|   -1.054527|
|         436|   -7.395702|  6.9302e-02|           2|   -1.077116|           1|   -1.059882|
|         437|   -7.409990|  6.9292e-02|           2|   -1.070694|           1|   -1.065033|
|         438|   -7.415070|  6.9278e-02|           2|   -1.078391|           1|   -1.068554|
|         439|   -7.400651|  6.9262e-02|           2|   -1.089256|           1|   -1.068662|
|         440|   -7.369699|  6.9245e-02|           2|   -1.091573|           1|   -1.065662|
|         441|   -7.335999|  6.9232e-02|           2|   -1.081965|           1|   -1.060610|
|         442|   -7.312000|  6.9228e-02|           2|   -1.060105|           2|   -1.474636|
|         443|   -7.303042|  6.9238e-02|           2|   -1.025913|           1|   -1.039770|
|         444|   -7.313444|  6.9256e-02|           3|   -1.212951|           1|   -1.038171|
|         445|   -7.342286|  6.9286e-02|           3|   -1.144438|           1|   -1.016105|
|         446|   -7.382795|  6.9322e-02|           3|   -1.084227|           1|   -1.010129|
|         447|   -7.434649|  6.9362e-02|           3|   -1.028351|           1|   -1.007581|
|         448|   -7.496480|  6.9375e-02|           4|   -1.364617|           2|   -1.574240|
|         449|   -7.565222|  6.9419e-02|           4|   -1.323901|           1|   -1.005792|
|         450|   -7.634526|  6.9461e-02|           4|   -1.264412|           2|   -1.599023|
|         451|   -7.696169|  6.9498e-02|           4|   -1.212726|           2|   -1.608560|
|         452|   -7.744442|  6.9534e-02|           4|   -1.172650|           2|   -1.612578|
|         453|   -7.777316|  6.9573e-02|           4|   -1.147371|           2|   -1.618438|
|         454|   -7.795507|  6.9618e-02|           4|   -1.140773|           2|   -1.629865|
|         455|   -7.803363|  6.9670e-02|           4|   -1.152389|           2|   -1.648936|
|         456|   -7.806393|  6.9730e-02|           4|   -1.180039|           2|   -1.677276|
|         457|   -7.808868|  6.9795e-02|           3|   -1.032329|           2|   -1.710838|
|         458|   -7.812546|  6.9866e-02|           3|   -1.094790|           1|   -1.002371|
|         459|   -7.819812|  6.9941e-02|           3|   -1.146680|           1|   -1.009657|
|         460|   -7.830887|  7.0015e-02|           3|   -1.188988|           1|   -1.014671|
|         461|   -7.845053|  7.0088e-02|           3|   -1.223168|           1|   -1.014260|
|         462|   -7.862256|  7.0159e-02|           3|   -1.243478|           1|   -1.005022|
|         463|   -7.882158|  7.0227e-02|           3|   -1.248540|           2|   -1.864949|
|         464|   -7.904038|  7.0290e-02|           3|   -1.243809|           2|   -1.785934|
|         465|   -7.927396|  7.0348e-02|           3|   -1.236113|           2|   -1.687704|
|         466|   -7.951946|  7.0400e-02|           3|   -1.228767|           2|   -1.593142|
|         467|   -7.977301|  7.0448e-02|           3|   -1.223367|           2|   -1.508574|
|         468|   -8.002588|  7.0489e-02|           3|   -1.218519|           2|   -1.434260|
|         469|   -8.028836|  7.0526e-02|           3|   -1.211965|           2|   -1.369793|
|         470|   -8.054514|  7.0559e-02|           3|   -1.204184|           2|   -1.314441|
|         471|   -8.080025|  7.0587e-02|           3|   -1.192425|           2|   -1.267506|
|         472|   -8.105128|  7.0612e-02|           3|   -1.175887|           2|   -1.228450|
|         473|   -8.129740|  7.0635e-02|           3|   -1.154582|           2|   -1.196875|
|         474|   -8.153802|  7.0655e-02|           3|   -1.129483|           2|   -1.172466|
|         475|   -8.177286|  7.0674e-02|           3|   -1.101884|           2|   -1.154972|
|         476|   -8.200190|  7.0691e-02|           3|   -1.072994|           2|   -1.144191|
|         477|   -8.222541|  7.0706e-02|           3|   -1.043887|           2|   -1.139964|
|         478|   -8.244380|  7.0721e-02|           3|   -1.015420|           2|   -1.142183|
|         479|   -8.265754|  7.0736e-02|           4|   -1.270147|           2|   -1.152184|
|         480|   -8.287197|  7.0749e-02|           4|   -1.213817|           2|   -1.168243|
|         481|   -8.306692|  7.0761e-02|           4|   -1.178895|           2|   -1.189406|
|         482|   -8.325926|  7.0773e-02|           4|   -1.142618|           2|   -1.216900|
|         483|   -8.348519|  7.0784e-02|           4|   -1.104837|           2|   -1.250887|
|         484|   -8.368773|  7.0794e-02|           4|   -1.074550|           2|   -1.290675|
|         485|   -8.388597|  7.0804e-02|           4|   -1.045535|           2|   -1.335523|
|         486|   -8.408140|  7.0813e-02|           4|   -1.016426|           2|   -1.384477|
|         487|   -8.427445|  7.0821e-02|           5|   -1.196540|           2|   -1.435794|
|         488|   -8.446583|  7.0829e-02|           5|   -1.179441|           2|   -1.486881|
|         489|   -8.465461|  7.0836e-02|           5|   -1.168145|           2|   -1.535104|
|         490|   -8.484204|  7.0843e-02|           5|   -1.153294|           1|   -1.011315|
|         491|   -8.502664|  7.0849e-02|           5|   -1.140897|           1|   -1.030605|
|         492|   -8.520824|  7.0854e-02|           5|   -1.131631|           1|   -1.035683|
|         493|   -8.538697|  7.0859e-02|           5|   -1.124388|           1|   -1.034274|
|         494|   -8.556250|  7.0864e-02|           5|   -1.119726|           1|   -1.026499|
|         495|   -8.573472|  7.0868e-02|           5|   -1.118387|           1|   -1.013889|
|         496|   -8.590373|  7.0872e-02|           5|   -1.120050|           2|   -1.616902|
|         497|   -8.606962|  7.0875e-02|           5|   -1.123476|           2|   -1.588703|
|         498|   -8.623251|  7.0878e-02|           5|   -1.126887|           2|   -1.567207|
|         499|   -8.639233|  7.0881e-02|           5|   -1.143006|           2|   -1.551211|
|         500|   -8.653374|  7.0883e-02|           5|   -1.136206|           2|   -1.538309|
|         501|   -8.669562|  7.0886e-02|           5|   -1.137295|           2|   -1.529143|
|         502|   -8.682295|  7.0888e-02|           5|   -1.132115|           2|   -1.523361|
|         503|   -8.695389|  7.0890e-02|           5|   -1.114360|           2|   -1.520082|
|         504|   -8.714498|  7.0892e-02|           5|   -1.085343|           2|   -1.518852|
|         505|   -8.729078|  7.0893e-02|           5|   -1.067790|           2|   -1.519359|
|         506|   -8.743436|  7.0895e-02|           5|   -1.051028|           2|   -1.521377|
|         507|   -8.757329|  7.0896e-02|           5|   -1.036019|           2|   -1.524666|
|         508|   -8.770968|  7.0898e-02|           5|   -1.022446|           2|   -1.528931|
|         509|   -8.784360|  7.0899e-02|           5|   -1.010517|           2|   -1.533840|
|         510|   -8.797518|  7.0900e-02|           5|   -1.000264|           2|   -1.539036|
|         511|   -8.810456|  7.0901e-02|           6|   -1.292372|           2|   -1.543918|
|         512|   -8.823512|  7.0902e-02|           6|   -1.282057|           2|   -1.548507|
|         513|   -8.836096|  7.0903e-02|           6|   -1.278199|           2|   -1.552387|
|         514|   -8.848469|  7.0904e-02|           6|   -1.275253|           2|   -1.555081|
|         515|   -8.860696|  7.0905e-02|           6|   -1.272805|           2|   -1.556273|
|         516|   -8.872826|  7.0905e-02|           6|   -1.270649|           2|   -1.555736|
|         517|   -8.884884|  7.0906e-02|           6|   -1.268288|           2|   -1.553319|
|         518|   -8.896894|  7.0906e-02|           6|   -1.265378|           2|   -1.548990|
|         519|   -8.908890|  7.0907e-02|           6|   -1.261748|           2|   -1.542871|
|         520|   -8.920909|  7.0907e-02|           6|   -1.257228|           2|   -1.535253|
|         521|   -8.932985|  7.0907e-02|           6|   -1.251599|           2|   -1.526612|
|         522|   -8.945149|  7.0907e-02|           6|   -1.244659|           2|   -1.517583|
|         523|   -8.957428|  7.0907e-02|           6|   -1.236271|           2|   -1.508917|
|         524|   -8.969837|  7.0907e-02|           6|   -1.226368|           2|   -1.501390|
|         525|   -8.982385|  7.0908e-02|           6|   -1.214958|           2|   -1.495697|
|         526|   -8.995065|  7.0908e-02|           6|   -1.202124|           2|   -1.492347|
|         527|   -9.007863|  7.0908e-02|           6|   -1.188031|           2|   -1.491591|
|         528|   -9.020749|  7.0907e-02|           6|   -1.172929|           2|   -1.493401|
|         529|   -9.033685|  7.0907e-02|           6|   -1.157142|           2|   -1.497511|
|         530|   -9.046621|  7.0907e-02|           6|   -1.141046|           2|   -1.503498|
|         531|   -9.059497|  7.0907e-02|           6|   -1.125037|           2|   -1.510864|
|         532|   -9.072245|  7.0907e-02|           6|   -1.109499|           2|   -1.519114|
|         533|   -9.084790|  7.0907e-02|           6|   -1.094778|           2|   -1.527797|
|         534|   -9.097054|  7.0907e-02|           6|   -1.081167|           2|   -1.536537|
|         535|   -9.108957|  7.0907e-02|           6|   -1.068894|           1|   -1.003561|
|         536|   -9.120424|  7.0907e-02|           6|   -1.058310|           1|   -1.008586|
|         537|   -9.131389|  7.0908e-02|           6|   -1.049252|           1|   -1.006842|
|         538|   -9.141804|  7.0908e-02|           6|   -1.041783|           1|   -1.006050|
|         539|   -9.151613|  7.0908e-02|           6|   -1.035922|           1|   -1.005524|
|         540|   -9.160788|  7.0908e-02|           6|   -1.031633|           1|   -1.004465|
|         541|   -9.169328|  7.0908e-02|           6|   -1.028843|           1|   -1.002616|
|         542|   -9.177249|  7.0909e-02|           6|   -1.027450|           1|   -1.000023|
|         543|   -9.184585|  7.0909e-02|           6|   -1.027321|           2|   -1.582608|
|         544|   -9.191392|  7.0909e-02|           6|   -1.028159|           1|   -1.010348|
|         545|   -9.197735|  7.0910e-02|           6|   -1.030075|           1|   -1.002532|
|         546|   -9.203692|  7.0910e-02|           6|   -1.032764|           2|   -1.575633|
|         547|   -9.209376|  7.0911e-02|           6|   -1.035840|           1|   -1.002076|
|         548|   -9.214861|  7.0911e-02|           6|   -1.039313|           2|   -1.572431|
|         549|   -9.220228|  7.0912e-02|           6|   -1.042888|           2|   -1.554120|
|         550|   -9.225590|  7.0912e-02|           6|   -1.046357|           2|   -1.544610|
|         551|   -9.231001|  7.0913e-02|           6|   -1.113484|           2|   -1.541136|
|         552|   -9.191318|  7.0913e-02|           6|   -1.121795|           2|   -1.541023|
|         553|   -9.227630|  7.0914e-02|           6|   -1.081067|           2|   -1.543166|
|         554|   -9.239578|  7.0915e-02|           6|   -1.071949|           2|   -1.546908|
|         555|   -9.253343|  7.0915e-02|           6|   -1.062683|           2|   -1.551859|
|         556|   -9.260420|  7.0916e-02|           6|   -1.061819|           1|   -1.004060|
|         557|   -9.267631|  7.0916e-02|           6|   -1.061350|           1|   -1.006553|
|         558|   -9.274924|  7.0917e-02|           6|   -1.060714|           1|   -1.001809|
|         559|   -9.282584|  7.0918e-02|           6|   -1.059432|           2|   -1.609128|
|         560|   -9.290503|  7.0918e-02|           6|   -1.057515|           1|   -1.015614|
|         561|   -9.298703|  7.0919e-02|           6|   -1.055035|           1|   -1.015563|
|         562|   -9.307183|  7.0920e-02|           6|   -1.052039|           1|   -1.014368|
|         563|   -9.315931|  7.0920e-02|           6|   -1.048530|           1|   -1.015040|
|         564|   -9.324897|  7.0921e-02|           6|   -1.044607|           1|   -1.017179|
|         565|   -9.334031|  7.0922e-02|           6|   -1.040384|           1|   -1.020245|
|         566|   -9.343283|  7.0922e-02|           6|   -1.035967|           1|   -1.023804|
|         567|   -9.352608|  7.0923e-02|           6|   -1.031451|           1|   -1.027553|
|         568|   -9.361967|  7.0923e-02|           6|   -1.026913|           1|   -1.031278|
|         569|   -9.371330|  7.0924e-02|           6|   -1.022409|           1|   -1.034812|
|         570|   -9.380675|  7.0925e-02|           6|   -1.017985|           1|   -1.038016|
|         571|   -9.389980|  7.0925e-02|           6|   -1.013683|           1|   -1.040771|
|         572|   -9.399223|  7.0926e-02|           6|   -1.009542|           1|   -1.042984|
|         573|   -9.408383|  7.0927e-02|           6|   -1.005604|           1|   -1.044591|
|         574|   -9.417438|  7.0927e-02|           6|   -1.001911|           1|   -1.045566|
|         575|   -9.426373|  7.0928e-02|           7|   -1.255648|           1|   -1.045850|
|         576|   -9.435991|  7.0928e-02|           7|   -1.253117|           1|   -1.045525|
|         577|   -9.444772|  7.0929e-02|           7|   -1.252001|           1|   -1.044715|
|         578|   -9.453306|  7.0930e-02|           7|   -1.251467|           1|   -1.043493|
|         579|   -9.461663|  7.0930e-02|           7|   -1.251645|           1|   -1.041969|
|         580|   -9.469910|  7.0931e-02|           7|   -1.252372|           1|   -1.040269|
|         581|   -9.478049|  7.0931e-02|           7|   -1.253331|           1|   -1.038523|
|         582|   -9.486076|  7.0932e-02|           7|   -1.254388|           1|   -1.036855|
|         583|   -9.494003|  7.0933e-02|           7|   -1.255573|           1|   -1.035386|
|         584|   -9.501855|  7.0933e-02|           7|   -1.256934|           1|   -1.034228|
|         585|   -9.509651|  7.0934e-02|           7|   -1.258499|           1|   -1.033477|
|         586|   -9.517409|  7.0934e-02|           7|   -1.260274|           1|   -1.033214|
|         587|   -9.525147|  7.0935e-02|           7|   -1.262247|           1|   -1.033497|
|         588|   -9.532879|  7.0935e-02|           7|   -1.264392|           1|   -1.034357|
|         589|   -9.540621|  7.0936e-02|           7|   -1.266670|           1|   -1.035805|
|         590|   -9.548382|  7.0937e-02|           7|   -1.269043|           1|   -1.037824|
|         591|   -9.556169|  7.0937e-02|           7|   -1.271474|           1|   -1.040378|
|         592|   -9.563984|  7.0938e-02|           7|   -1.273932|           1|   -1.043412|
|         593|   -9.571824|  7.0938e-02|           6|   -1.001722|           1|   -1.046879|
|         594|   -9.578723|  7.0939e-02|           6|   -1.004623|           1|   -1.050742|
|         595|   -9.586397|  7.0939e-02|           6|   -1.007866|           1|   -1.054797|
|         596|   -9.594537|  7.0940e-02|           6|   -1.008759|           1|   -1.059034|
|         597|   -9.602481|  7.0940e-02|           6|   -1.009835|           1|   -1.063387|
|         598|   -9.610246|  7.0941e-02|           6|   -1.011281|           1|   -1.067780|
|         599|   -9.617948|  7.0941e-02|           6|   -1.012735|           1|   -1.072166|
|         600|   -9.625584|  7.0942e-02|           6|   -1.014223|           1|   -1.076517|
|         601|   -9.633112|  7.0942e-02|           6|   -1.015897|           1|   -1.080819|
|         602|   -9.640508|  7.0943e-02|           6|   -1.017798|           1|   -1.085068|
|         603|   -9.647761|  7.0943e-02|           6|   -1.019891|           1|   -1.089278|
|         604|   -9.654860|  7.0944e-02|           6|   -1.022139|           1|   -1.093472|
|         605|   -9.661798|  7.0944e-02|           6|   -1.024525|           1|   -1.097683|
|         606|   -9.668571|  7.0945e-02|           6|   -1.027047|           1|   -1.101951|
|         607|   -9.675177|  7.0945e-02|           6|   -1.029715|           1|   -1.106320|
|         608|   -9.681616|  7.0945e-02|           6|   -1.032539|           1|   -1.110839|
|         609|   -9.687890|  7.0946e-02|           6|   -1.035519|           1|   -1.115555|
|         610|   -9.694003|  7.0946e-02|           6|   -1.038646|           1|   -1.120511|
|         611|   -9.699960|  7.0947e-02|           6|   -1.041899|           1|   -1.125749|
|         612|   -9.705769|  7.0947e-02|           6|   -1.045251|           1|   -1.131301|
|         613|   -9.711437|  7.0947e-02|           6|   -1.048668|           1|   -1.137191|
|         614|   -9.716973|  7.0948e-02|           6|   -1.052116|           1|   -1.143434|
|         615|   -9.722384|  7.0948e-02|           6|   -1.055562|           1|   -1.150034|
|         616|   -9.727677|  7.0949e-02|           6|   -1.058979|           1|   -1.156984|
|         617|   -9.732859|  7.0949e-02|           6|   -1.062345|           1|   -1.164270|
|         618|   -9.737935|  7.0949e-02|           6|   -1.065650|           1|   -1.171865|
|         619|   -9.742910|  7.0950e-02|           6|   -1.068887|           1|   -1.179736|
|         620|   -9.747789|  7.0950e-02|           6|   -1.072060|           1|   -1.187841|
|         621|   -9.752573|  7.0951e-02|           6|   -1.075177|           1|   -1.196135|
|         622|   -9.757266|  7.0951e-02|           6|   -1.078248|           1|   -1.204567|
|         623|   -9.761869|  7.0951e-02|           6|   -1.081286|           1|   -1.213082|
|         624|   -9.766384|  7.0952e-02|           6|   -1.084306|           1|   -1.221628|
|         625|   -9.770810|  7.0952e-02|           6|   -1.087320|           1|   -1.230149|
|         626|   -9.775149|  7.0952e-02|           6|   -1.090340|           1|   -1.238593|
|         627|   -9.779401|  7.0953e-02|           6|   -1.093377|           1|   -1.246908|
|         628|   -9.783565|  7.0953e-02|           6|   -1.096440|           1|   -1.255048|
|         629|   -9.787644|  7.0953e-02|           6|   -1.099537|           1|   -1.262966|
|         630|   -9.791637|  7.0954e-02|           6|   -1.102675|           1|   -1.270621|
|         631|   -9.795545|  7.0954e-02|           6|   -1.105858|           1|   -1.277975|
|         632|   -9.799369|  7.0954e-02|           6|   -1.109091|           1|   -1.284989|
|         633|   -9.803110|  7.0955e-02|           6|   -1.112376|           1|   -1.291629|
|         634|   -9.806769|  7.0955e-02|           6|   -1.115716|           1|   -1.297860|
|         635|   -9.810348|  7.0955e-02|           6|   -1.119112|           1|   -1.303648|
|         636|   -9.813848|  7.0956e-02|           6|   -1.122565|           1|   -1.308957|
|         637|   -9.817271|  7.0956e-02|           6|   -1.126076|           1|   -1.313751|
|         638|   -9.820618|  7.0956e-02|           6|   -1.129643|           1|   -1.317993|
|         639|   -9.823891|  7.0957e-02|           6|   -1.133268|           1|   -1.321643|
|         640|   -9.827091|  7.0957e-02|           6|   -1.136947|           1|   -1.324661|
|         641|   -9.830220|  7.0957e-02|           6|   -1.140681|           1|   -1.327007|
|         642|   -9.833281|  7.0958e-02|           6|   -1.144468|           1|   -1.328644|
|         643|   -9.836273|  7.0958e-02|           6|   -1.148305|           1|   -1.329534|
|         644|   -9.839200|  7.0958e-02|           6|   -1.152190|           1|   -1.329649|
|         645|   -9.842062|  7.0958e-02|           6|   -1.156122|           1|   -1.328964|
|         646|   -9.844862|  7.0959e-02|           6|   -1.160098|           1|   -1.327464|
|         647|   -9.847601|  7.0959e-02|           6|   -1.164115|           1|   -1.325145|
|         648|   -9.850282|  7.0959e-02|           6|   -1.168172|           1|   -1.322016|
|         649|   -9.852906|  7.0960e-02|           6|   -1.172266|           1|   -1.318098|
|         650|   -9.855474|  7.0960e-02|           6|   -1.176396|           1|   -1.313426|
|         651|   -9.857990|  7.0960e-02|           6|   -1.180560|           1|   -1.308046|
|         652|   -9.860454|  7.0960e-02|           6|   -1.184759|           1|   -1.302017|
|         653|   -9.862870|  7.0961e-02|           6|   -1.188990|           1|   -1.295408|
|         654|   -9.865237|  7.0961e-02|           6|   -1.193255|           1|   -1.288295|
|         655|   -9.867559|  7.0961e-02|           6|   -1.197553|           1|   -1.280756|
|         656|   -9.869838|  7.0962e-02|           6|   -1.201887|           1|   -1.272875|
|         657|   -9.872073|  7.0962e-02|           6|   -1.206256|           1|   -1.264734|
|         658|   -9.874269|  7.0962e-02|           5|   -1.000459|           1|   -1.257764|
|         659|   -9.876346|  7.0962e-02|           5|   -1.010610|           1|   -1.249586|
|         660|   -9.878393|  7.0963e-02|           5|   -1.015621|           1|   -1.241312|
|         661|   -9.880518|  7.0963e-02|           5|   -1.016755|           1|   -1.233207|
|         662|   -9.882600|  7.0963e-02|           5|   -1.018699|           1|   -1.225066|
|         663|   -9.884622|  7.0963e-02|           5|   -1.021557|           1|   -1.216847|
|         664|   -9.886606|  7.0964e-02|           5|   -1.024548|           1|   -1.208619|
|         665|   -9.888557|  7.0964e-02|           5|   -1.027509|           1|   -1.200435|
|         666|   -9.890475|  7.0964e-02|           5|   -1.030586|           1|   -1.192334|
|         667|   -9.892361|  7.0964e-02|           5|   -1.033898|           1|   -1.184367|
|         668|   -9.894217|  7.0965e-02|           5|   -1.037496|           1|   -1.176591|
|         669|   -9.896046|  7.0965e-02|           5|   -1.041384|           1|   -1.169061|
|         670|   -9.897848|  7.0965e-02|           5|   -1.045536|           1|   -1.161822|
|         671|   -9.899624|  7.0965e-02|           5|   -1.049918|           1|   -1.154916|
|         672|   -9.901376|  7.0966e-02|           5|   -1.054494|           1|   -1.148378|
|         673|   -9.903104|  7.0966e-02|           5|   -1.059233|           1|   -1.142235|
|         674|   -9.904809|  7.0966e-02|           5|   -1.064103|           1|   -1.136506|
|         675|   -9.906492|  7.0966e-02|           5|   -1.069076|           1|   -1.131203|
|         676|   -9.908153|  7.0967e-02|           5|   -1.074124|           1|   -1.126328|
|         677|   -9.909794|  7.0967e-02|           5|   -1.079230|           1|   -1.121875|
|         678|   -9.911415|  7.0967e-02|           5|   -1.084387|           1|   -1.117834|
|         679|   -9.913018|  7.0967e-02|           5|   -1.089595|           1|   -1.114184|
|         680|   -9.914603|  7.0968e-02|           5|   -1.094859|           1|   -1.110902|
|         681|   -9.916171|  7.0968e-02|           5|   -1.100186|           1|   -1.107960|
|         682|   -9.917722|  7.0968e-02|           5|   -1.105583|           1|   -1.105329|
|         683|   -9.919257|  7.0968e-02|           5|   -1.111054|           1|   -1.102977|
|         684|   -9.920777|  7.0968e-02|           5|   -1.116603|           1|   -1.100874|
|         685|   -9.922282|  7.0969e-02|           5|   -1.122230|           1|   -1.098989|
|         686|   -9.923772|  7.0969e-02|           4|   -1.001427|           1|   -1.097833|
|         687|   -9.925174|  7.0969e-02|           4|   -1.014559|           1|   -1.096716|
|         688|   -9.926527|  7.0969e-02|           4|   -1.022078|           1|   -1.095574|
|         689|   -9.927970|  7.0970e-02|           4|   -1.024604|           1|   -1.094632|
|         690|   -9.929428|  7.0970e-02|           4|   -1.027888|           1|   -1.093726|
|         691|   -9.930865|  7.0970e-02|           4|   -1.032927|           1|   -1.092735|
|         692|   -9.932282|  7.0970e-02|           4|   -1.038518|           1|   -1.091635|
|         693|   -9.933687|  7.0970e-02|           4|   -1.043850|           1|   -1.090426|
|         694|   -9.935080|  7.0971e-02|           4|   -1.048919|           1|   -1.089104|
|         695|   -9.936460|  7.0971e-02|           4|   -1.053984|           1|   -1.087673|
|         696|   -9.937830|  7.0971e-02|           4|   -1.059189|           1|   -1.086148|
|         697|   -9.939188|  7.0971e-02|           4|   -1.064541|           1|   -1.084547|
|         698|   -9.940537|  7.0972e-02|           4|   -1.069996|           1|   -1.082889|
|         699|   -9.941876|  7.0972e-02|           4|   -1.075533|           1|   -1.081190|
|         700|   -9.943207|  7.0972e-02|           4|   -1.081160|           1|   -1.079470|
|         701|   -9.944530|  7.0972e-02|           4|   -1.086903|           1|   -1.077745|
|         702|   -9.945844|  7.0972e-02|           4|   -1.092783|           1|   -1.076031|
|         703|   -9.947151|  7.0973e-02|           4|   -1.098801|           1|   -1.074344|
|         704|   -9.948450|  7.0973e-02|           4|   -1.104931|           1|   -1.072698|
|         705|   -9.949741|  7.0973e-02|           4|   -1.111132|           1|   -1.071105|
|         706|   -9.951025|  7.0973e-02|           4|   -1.117363|           1|   -1.069574|
|         707|   -9.952303|  7.0973e-02|           4|   -1.123594|           1|   -1.068114|
|         708|   -9.953575|  7.0974e-02|           4|   -1.129812|           1|   -1.066730|
|         709|   -9.954841|  7.0974e-02|           4|   -1.136021|           1|   -1.065426|
|         710|   -9.956102|  7.0974e-02|           4|   -1.142232|           1|   -1.064206|
|         711|   -9.957358|  7.0974e-02|           4|   -1.148459|           1|   -1.063072|
|         712|   -9.958608|  7.0974e-02|           3|   -1.004612|           1|   -1.062362|
|         713|   -9.959818|  7.0975e-02|           3|   -1.010772|           1|   -1.062005|
|         714|   -9.961065|  7.0975e-02|           3|   -1.012248|           1|   -1.061589|
|         715|   -9.962296|  7.0975e-02|           3|   -1.016314|           1|   -1.061324|
|         716|   -9.963522|  7.0975e-02|           3|   -1.021811|           1|   -1.061163|
|         717|   -9.964751|  7.0975e-02|           3|   -1.027011|           1|   -1.061042|
|         718|   -9.965981|  7.0975e-02|           3|   -1.032504|           1|   -1.060939|
|         719|   -9.967204|  7.0976e-02|           3|   -1.038443|           1|   -1.060810|
|         720|   -9.968422|  7.0976e-02|           3|   -1.044282|           1|   -1.060622|
|         721|   -9.969637|  7.0976e-02|           3|   -1.049608|           1|   -1.060361|
[...]
|        2366|  -11.762463|  7.0999e-02|           1|   -1.053057|           2|   -1.497060|
|        2367|  -11.763588|  7.0999e-02|           2|   -1.294444|           2|   -1.499044|
|        2368|  -11.764894|  7.0999e-02|           1|   -1.052955|           2|   -1.497080|
|        2369|  -11.766019|  7.0999e-02|           2|   -1.294322|           2|   -1.499066|
|        2370|  -11.767326|  7.0998e-02|           1|   -1.052846|           2|   -1.497102|
|        2371|  -11.768450|  7.0998e-02|           2|   -1.294200|           2|   -1.499087|
|        2372|  -11.769757|  7.0998e-02|           1|   -1.052754|           2|   -1.497122|
|        2373|  -11.770881|  7.0998e-02|           2|   -1.294074|           2|   -1.499109|
|        2374|  -11.772188|  7.0998e-02|           1|   -1.052653|           2|   -1.497144|
|        2375|  -11.773313|  7.0998e-02|           2|   -1.293954|           2|   -1.499130|
|        2376|  -11.774619|  7.0998e-02|           1|   -1.052562|           2|   -1.497165|
|        2377|  -11.775744|  7.0998e-02|           2|   -1.293833|           2|   -1.499152|
|        2378|  -11.777051|  7.0998e-02|           1|   -1.052459|           2|   -1.497186|
|        2379|  -11.778175|  7.0998e-02|           2|   -1.293713|           2|   -1.499174|
|        2380|  -11.779482|  7.0998e-02|           1|   -1.052371|           2|   -1.497207|
|        2381|  -11.780606|  7.0998e-02|           2|   -1.293595|           2|   -1.499195|
|        2382|  -11.781913|  7.0998e-02|           1|   -1.052272|           2|   -1.497228|
|        2383|  -11.783038|  7.0998e-02|           2|   -1.293479|           2|   -1.499216|
|        2384|  -11.784344|  7.0998e-02|           1|   -1.052178|           2|   -1.497249|
|        2385|  -11.785469|  7.0998e-02|           2|   -1.293361|           2|   -1.499237|
|        2386|  -11.786775|  7.0998e-02|           1|   -1.052086|           2|   -1.497269|
|        2387|  -11.787900|  7.0998e-02|           2|   -1.293241|           2|   -1.499258|
|        2388|  -11.789207|  7.0998e-02|           1|   -1.051985|           2|   -1.497290|
|        2389|  -11.790331|  7.0998e-02|           2|   -1.293124|           2|   -1.499278|
|        2390|  -11.791638|  7.0998e-02|           1|   -1.051896|           2|   -1.497310|
|        2391|  -11.792762|  7.0998e-02|           2|   -1.293006|           2|   -1.499298|
|        2392|  -11.794069|  7.0998e-02|           1|   -1.051797|           2|   -1.497329|
|        2393|  -11.795194|  7.0998e-02|           2|   -1.292890|           2|   -1.499319|
|        2394|  -11.796500|  7.0998e-02|           1|   -1.051709|           2|   -1.497348|
|        2395|  -11.797625|  7.0998e-02|           2|   -1.292774|           2|   -1.499337|
|        2396|  -11.798931|  7.0998e-02|           1|   -1.051619|           2|   -1.497367|
|        2397|  -11.800056|  7.0998e-02|           2|   -1.292661|           2|   -1.499356|
|        2398|  -11.801362|  7.0998e-02|           1|   -1.051530|           2|   -1.497384|
|        2399|  -11.802487|  7.0998e-02|           2|   -1.292547|           2|   -1.499374|
|        2400|  -11.803793|  7.0998e-02|           1|   -1.051432|           2|   -1.497403|
|        2401|  -11.804918|  7.0998e-02|           2|   -1.292433|           2|   -1.499392|
|        2402|  -11.806224|  7.0998e-02|           1|   -1.051345|           2|   -1.497419|
|        2403|  -11.807349|  7.0998e-02|           2|   -1.292319|           2|   -1.499409|
|        2404|  -11.808655|  7.0998e-02|           1|   -1.051253|           2|   -1.497437|
|        2405|  -11.809780|  7.0998e-02|           2|   -1.292208|           2|   -1.499426|
|        2406|  -11.811086|  7.0998e-02|           1|   -1.051167|           2|   -1.497453|
|        2407|  -11.812211|  7.0998e-02|           2|   -1.292092|           2|   -1.499444|
|        2408|  -11.813517|  7.0998e-02|           1|   -1.051069|           2|   -1.497470|
|        2409|  -11.814642|  7.0998e-02|           2|   -1.291983|           2|   -1.499460|
|        2410|  -11.815948|  7.0998e-02|           1|   -1.050978|           2|   -1.497486|
|        2411|  -11.817073|  7.0998e-02|           2|   -1.291869|           2|   -1.499476|
|        2412|  -11.818379|  7.0998e-02|           1|   -1.050892|           2|   -1.497503|
|        2413|  -11.819504|  7.0998e-02|           2|   -1.291761|           2|   -1.499493|
|        2414|  -11.820810|  7.0998e-02|           1|   -1.050804|           2|   -1.497519|
|        2415|  -11.821936|  7.0998e-02|           2|   -1.291647|           2|   -1.499509|
|        2416|  -11.823241|  7.0998e-02|           1|   -1.050710|           2|   -1.497535|
|        2417|  -11.824367|  7.0998e-02|           2|   -1.291541|           2|   -1.499526|
|        2418|  -11.825672|  7.0998e-02|           1|   -1.050627|           2|   -1.497550|
|        2419|  -11.826798|  7.0998e-02|           2|   -1.291436|           2|   -1.499541|
|        2420|  -11.828103|  7.0998e-02|           1|   -1.050541|           2|   -1.497567|
|        2421|  -11.829229|  7.0998e-02|           2|   -1.291323|           2|   -1.499558|
|        2422|  -11.830534|  7.0998e-02|           1|   -1.050452|           2|   -1.497583|
|        2423|  -11.831660|  7.0998e-02|           2|   -1.291219|           2|   -1.499574|
|        2424|  -11.832965|  7.0998e-02|           1|   -1.050366|           2|   -1.497599|
|        2425|  -11.834091|  7.0998e-02|           2|   -1.291109|           2|   -1.499591|
|        2426|  -11.835396|  7.0998e-02|           1|   -1.050279|           2|   -1.497615|
|        2427|  -11.836521|  7.0998e-02|           2|   -1.291003|           2|   -1.499608|
|        2428|  -11.837827|  7.0998e-02|           1|   -1.050191|           2|   -1.497631|
|        2429|  -11.838952|  7.0998e-02|           2|   -1.290897|           2|   -1.499624|
|        2430|  -11.840258|  7.0998e-02|           1|   -1.050112|           2|   -1.497648|
|        2431|  -11.841383|  7.0998e-02|           2|   -1.290793|           2|   -1.499641|
|        2432|  -11.842689|  7.0998e-02|           1|   -1.050020|           2|   -1.497664|
|        2433|  -11.843814|  7.0998e-02|           2|   -1.290690|           2|   -1.499658|
|        2434|  -11.845120|  7.0998e-02|           1|   -1.049942|           2|   -1.497682|
|        2435|  -11.846245|  7.0998e-02|           2|   -1.290588|           2|   -1.499675|
|        2436|  -11.847551|  7.0998e-02|           1|   -1.049858|           2|   -1.497698|
|        2437|  -11.848676|  7.0998e-02|           2|   -1.290487|           2|   -1.499693|
|        2438|  -11.849982|  7.0998e-02|           1|   -1.049780|           2|   -1.497715|
|        2439|  -11.851107|  7.0998e-02|           2|   -1.290382|           2|   -1.499709|
|        2440|  -11.852412|  7.0998e-02|           1|   -1.049690|           2|   -1.497731|
|        2441|  -11.853538|  7.0998e-02|           2|   -1.290283|           2|   -1.499727|
|        2442|  -11.854843|  7.0998e-02|           1|   -1.049619|           2|   -1.497749|
|        2443|  -11.855969|  7.0998e-02|           2|   -1.290177|           2|   -1.499744|
|        2444|  -11.857274|  7.0998e-02|           1|   -1.049530|           2|   -1.497765|
|        2445|  -11.858400|  7.0998e-02|           2|   -1.290076|           2|   -1.499761|
|        2446|  -11.859705|  7.0998e-02|           1|   -1.049448|           2|   -1.497782|
|        2447|  -11.860831|  7.0998e-02|           2|   -1.289982|           2|   -1.499778|
|        2448|  -11.862136|  7.0998e-02|           1|   -1.049373|           2|   -1.497799|
|        2449|  -11.863261|  7.0998e-02|           2|   -1.289878|           2|   -1.499794|
|        2450|  -11.864567|  7.0998e-02|           1|   -1.049291|           2|   -1.497815|
|        2451|  -11.865692|  7.0998e-02|           2|   -1.289781|           2|   -1.499811|
|        2452|  -11.866997|  7.0998e-02|           1|   -1.049217|           2|   -1.497832|
|        2453|  -11.868123|  7.0998e-02|           2|   -1.289680|           2|   -1.499828|
|        2454|  -11.869428|  7.0998e-02|           1|   -1.049138|           2|   -1.497847|
|        2455|  -11.870554|  7.0998e-02|           2|   -1.289584|           2|   -1.499845|
|        2456|  -11.871859|  7.0998e-02|           1|   -1.049056|           2|   -1.497864|
|        2457|  -11.872985|  7.0998e-02|           2|   -1.289490|           2|   -1.499861|
|        2458|  -11.874290|  7.0998e-02|           1|   -1.048980|           2|   -1.497880|
|        2459|  -11.875415|  7.0998e-02|           2|   -1.289390|           2|   -1.499877|
|        2460|  -11.876721|  7.0998e-02|           1|   -1.048896|           2|   -1.497895|
|        2461|  -11.877846|  7.0998e-02|           2|   -1.289295|           2|   -1.499892|
|        2462|  -11.879151|  7.0998e-02|           1|   -1.048828|           2|   -1.497911|
|        2463|  -11.880277|  7.0998e-02|           2|   -1.289200|           2|   -1.499908|
|        2464|  -11.881582|  7.0998e-02|           1|   -1.048743|           2|   -1.497926|
|        2465|  -11.882708|  7.0998e-02|           2|   -1.289105|           2|   -1.499924|
|        2466|  -11.884013|  7.0998e-02|           1|   -1.048674|           2|   -1.497941|
|        2467|  -11.885138|  7.0998e-02|           2|   -1.289011|           2|   -1.499939|
|        2468|  -11.886443|  7.0998e-02|           1|   -1.048594|           2|   -1.497956|
|        2469|  -11.887569|  7.0998e-02|           2|   -1.288917|           2|   -1.499954|
|        2470|  -11.888874|  7.0998e-02|           1|   -1.048517|           2|   -1.497971|
|        2471|  -11.890000|  7.0998e-02|           2|   -1.288821|           2|   -1.499968|
|        2472|  -11.891305|  7.0998e-02|           1|   -1.048440|           2|   -1.497985|
|        2473|  -11.892431|  7.0998e-02|           2|   -1.288727|           2|   -1.499983|
|        2474|  -11.893736|  7.0998e-02|           1|   -1.048374|           2|   -1.498000|
|        2475|  -11.894861|  7.0998e-02|           2|   -1.288634|           2|   -1.499998|
|        2476|  -11.896166|  7.0998e-02|           1|   -1.048294|           2|   -1.498014|
|        2477|  -11.897292|  7.0998e-02|           2|   -1.288540|           2|   -1.500013|
|        2478|  -11.898597|  7.0998e-02|           1|   -1.048226|           2|   -1.498029|
|        2479|  -11.899723|  7.0998e-02|           2|   -1.288453|           2|   -1.500028|
|        2480|  -11.901028|  7.0998e-02|           1|   -1.048145|           2|   -1.498042|
|        2481|  -11.902153|  7.0998e-02|           2|   -1.288358|           2|   -1.500042|
|        2482|  -11.903458|  7.0998e-02|           1|   -1.048078|           2|   -1.498057|
|        2483|  -11.904584|  7.0998e-02|           2|   -1.288270|           2|   -1.500057|
|        2484|  -11.905889|  7.0998e-02|           1|   -1.048004|           2|   -1.498072|
|        2485|  -11.907015|  7.0998e-02|           2|   -1.288177|           2|   -1.500071|
|        2486|  -11.908320|  7.0998e-02|           1|   -1.047928|           2|   -1.498086|
|        2487|  -11.909445|  7.0998e-02|           2|   -1.288087|           2|   -1.500086|
|        2488|  -11.910750|  7.0998e-02|           1|   -1.047854|           2|   -1.498100|
|        2489|  -11.911876|  7.0998e-02|           2|   -1.287997|           2|   -1.500100|
|        2490|  -11.913181|  7.0998e-02|           1|   -1.047782|           2|   -1.498114|
|        2491|  -11.914307|  7.0998e-02|           2|   -1.287907|           2|   -1.500115|
|        2492|  -11.915611|  7.0998e-02|           1|   -1.047707|           2|   -1.498128|
|        2493|  -11.916737|  7.0998e-02|           2|   -1.287822|           2|   -1.500129|
|        2494|  -11.918042|  7.0998e-02|           1|   -1.047647|           2|   -1.498143|
|        2495|  -11.919168|  7.0998e-02|           2|   -1.287740|           2|   -1.500144|
|        2496|  -11.920473|  7.0998e-02|           1|   -1.047567|           2|   -1.498157|
|        2497|  -11.921599|  7.0998e-02|           2|   -1.287654|           2|   -1.500157|
|        2498|  -11.922903|  7.0998e-02|           1|   -1.047511|           2|   -1.498171|
|        2499|  -11.924029|  7.0998e-02|           2|   -1.287567|           2|   -1.500172|
|        2500|  -11.925334|  7.0998e-02|           1|   -1.047430|           2|   -1.498184|
|        2501|  -11.926460|  7.0998e-02|           2|   -1.287476|           2|   -1.500186|
|        2502|  -11.927764|  7.0998e-02|           1|   -1.047369|           2|   -1.498199|
|        2503|  -11.928890|  7.0998e-02|           2|   -1.287392|           2|   -1.500200|
|        2504|  -11.930195|  7.0998e-02|           1|   -1.047281|           2|   -1.498212|
|        2505|  -11.931321|  7.0998e-02|           2|   -1.287306|           2|   -1.500214|
|        2506|  -11.932625|  7.0998e-02|           1|   -1.047227|           2|   -1.498226|
|        2507|  -11.933751|  7.0998e-02|           2|   -1.287223|           2|   -1.500228|
|        2508|  -11.935056|  7.0998e-02|           1|   -1.047147|           2|   -1.498239|
|        2509|  -11.936182|  7.0998e-02|           2|   -1.287139|           2|   -1.500242|
|        2510|  -11.937486|  7.0998e-02|           1|   -1.047087|           2|   -1.498253|
|        2511|  -11.938612|  7.0998e-02|           2|   -1.287056|           2|   -1.500255|
|        2512|  -11.939917|  7.0998e-02|           1|   -1.047017|           2|   -1.498266|
|        2513|  -11.941043|  7.0998e-02|           2|   -1.286967|           2|   -1.500269|
|        2514|  -11.942347|  7.0998e-02|           1|   -1.046956|           2|   -1.498279|
|        2515|  -11.943474|  7.0998e-02|           2|   -1.286891|           2|   -1.500282|
|        2516|  -11.944778|  7.0998e-02|           1|   -1.046888|           2|   -1.498292|
|        2517|  -11.945904|  7.0998e-02|           2|   -1.286802|           2|   -1.500295|
|        2518|  -11.947208|  7.0998e-02|           1|   -1.046818|           2|   -1.498305|
|        2519|  -11.948335|  7.0998e-02|           2|   -1.286727|           2|   -1.500309|
|        2520|  -11.949639|  7.0998e-02|           1|   -1.046766|           2|   -1.498318|
|        2521|  -11.950765|  7.0998e-02|           2|   -1.286647|           2|   -1.500322|
|        2522|  -11.952069|  7.0998e-02|           1|   -1.046681|           2|   -1.498331|
|        2523|  -11.953195|  7.0998e-02|           2|   -1.286567|           2|   -1.500334|
|        2524|  -11.954500|  7.0998e-02|           1|   -1.046631|           2|   -1.498344|
|        2525|  -11.955626|  7.0998e-02|           2|   -1.286484|           2|   -1.500347|
|        2526|  -11.956930|  7.0998e-02|           1|   -1.046564|           2|   -1.498357|
|        2527|  -11.958056|  7.0998e-02|           2|   -1.286401|           2|   -1.500360|
|        2528|  -11.959361|  7.0998e-02|           1|   -1.046497|           2|   -1.498368|
|        2529|  -11.960487|  7.0998e-02|           2|   -1.286327|           2|   -1.500373|
|        2530|  -11.961791|  7.0998e-02|           1|   -1.046437|           2|   -1.498381|
|        2531|  -11.962917|  7.0998e-02|           2|   -1.286242|           2|   -1.500386|
|        2532|  -11.964221|  7.0998e-02|           1|   -1.046376|           2|   -1.498394|
|        2533|  -11.965348|  7.0998e-02|           2|   -1.286164|           2|   -1.500398|
|        2534|  -11.966652|  7.0998e-02|           1|   -1.046301|           2|   -1.498406|
|        2535|  -11.967778|  7.0998e-02|           2|   -1.286086|           2|   -1.500411|
|        2536|  -11.969082|  7.0998e-02|           1|   -1.046242|           2|   -1.498418|
|        2537|  -11.970209|  7.0998e-02|           2|   -1.286009|           2|   -1.500424|
|        2538|  -11.971513|  7.0998e-02|           1|   -1.046178|           2|   -1.498431|
|        2539|  -11.972639|  7.0998e-02|           2|   -1.285933|           2|   -1.500436|
|        2540|  -11.973943|  7.0998e-02|           1|   -1.046115|           2|   -1.498442|
|        2541|  -11.975069|  7.0998e-02|           2|   -1.285859|           2|   -1.500448|
|        2542|  -11.976373|  7.0998e-02|           1|   -1.046060|           2|   -1.498455|
|        2543|  -11.977500|  7.0998e-02|           2|   -1.285785|           2|   -1.500460|
|        2544|  -11.978804|  7.0998e-02|           1|   -1.045999|           2|   -1.498467|
|        2545|  -11.979930|  7.0998e-02|           2|   -1.285708|           2|   -1.500473|
|        2546|  -11.981234|  7.0998e-02|           1|   -1.045934|           2|   -1.498480|
|        2547|  -11.982360|  7.0998e-02|           2|   -1.285631|           2|   -1.500485|
|        2548|  -11.983664|  7.0998e-02|           1|   -1.045877|           2|   -1.498491|
|        2549|  -11.984791|  7.0998e-02|           2|   -1.285556|           2|   -1.500497|
|        2550|  -11.986095|  7.0998e-02|           1|   -1.045819|           2|   -1.498503|
|        2551|  -11.987221|  7.0998e-02|           2|   -1.285480|           2|   -1.500510|
|        2552|  -11.988525|  7.0998e-02|           1|   -1.045759|           2|   -1.498515|
|        2553|  -11.989652|  7.0998e-02|           2|   -1.285409|           2|   -1.500521|
|        2554|  -11.990955|  7.0998e-02|           1|   -1.045699|           2|   -1.498527|
|        2555|  -11.992082|  7.0998e-02|           2|   -1.285330|           2|   -1.500533|
|        2556|  -11.993386|  7.0998e-02|           1|   -1.045632|           2|   -1.498539|
|        2557|  -11.994512|  7.0998e-02|           2|   -1.285255|           2|   -1.500546|
|        2558|  -11.995816|  7.0998e-02|           1|   -1.045572|           2|   -1.498551|
|        2559|  -11.996942|  7.0998e-02|           2|   -1.285185|           2|   -1.500557|
|        2560|  -11.998246|  7.0998e-02|           1|   -1.045518|           2|   -1.498562|
|        2561|  -11.999373|  7.0998e-02|           2|   -1.285113|           2|   -1.500569|
|        2562|  -12.000676|  7.0998e-02|           1|   -1.045465|           2|   -1.498574|

----------------------------- Solver Exit -------------------------------
All convergence criteria satisfied.
+-----------------------------------------------------------------------+
|      Convergence Field     |     Value    |   Criterion  |  Converged |
+-----------------------------------------------------------------------+
|                    rms[Rho]|      -12.0007|         < -12|         Yes|
+-----------------------------------------------------------------------+
-------------------------------------------------------------------------
+-----------------------------------------------------------------------+
|        File Writing Summary       |              Filename             |
+-----------------------------------------------------------------------+
|SU2 binary restart                 |restart_flow.dat                   |
|Paraview                           |flow.vtu                           |
|Paraview surface                   |surface_flow.vtu                   |
+-----------------------------------------------------------------------+

------------------------- Solver Postprocessing -------------------------
Deleted CNumerics container.
Deleted CIntegration container.
Deleted CSolver container.
Deleted CIteration container.
Deleted CInterface container.
Deleted CGeometry container.
Deleted CFreeFormDefBox class.
Deleted CSurfaceMovement class.
Deleted CVolumetricMovement class.
Deleted CConfig container.
Deleted nInst container.
Deleted COutput class.
-------------------------------------------------------------------------

------------------------- Exit Success (SU2_CFD) ------------------------

